<?xml version="1.0" encoding="UTF-8"?>
<routes>
  <vType id="car" vClass="passenger" maxSpeed="33.33" accel="2.6" decel="4.5" sigma="0.5" length="5" minGap="2.5"/>

  <flow id="flow_0" type="car" fromTaz="taz_0_0" toTaz="taz_0_1" begin="0" end="3600" vehsPerHour="1224" departLane="free" departSpeed="random"/>
  <flow id="flow_1" type="car" fromTaz="taz_0_0" toTaz="taz_0_2" begin="0" end="3600" vehsPerHour="848" departLane="free" departSpeed="random"/>
  <flow id="flow_2" type="car" fromTaz="taz_0_0" toTaz="taz_0_3" begin="0" end="3600" vehsPerHour="19" departLane="free" departSpeed="random"/>
  <flow id="flow_3" type="car" fromTaz="taz_0_0" toTaz="taz_1_0" begin="0" end="3600" vehsPerHour="318" departLane="free" departSpeed="random"/>
  <flow id="flow_4" type="car" fromTaz="taz_0_0" toTaz="taz_1_1" begin="0" end="3600" vehsPerHour="691" departLane="free" departSpeed="random"/>
  <flow id="flow_5" type="car" fromTaz="taz_0_0" toTaz="taz_1_2" begin="0" end="3600" vehsPerHour="580" departLane="free" departSpeed="random"/>
  <flow id="flow_6" type="car" fromTaz="taz_0_0" toTaz="taz_1_3" begin="0" end="3600" vehsPerHour="165" departLane="free" departSpeed="random"/>
  <flow id="flow_7" type="car" fromTaz="taz_0_0" toTaz="taz_2_0" begin="0" end="3600" vehsPerHour="130" departLane="free" departSpeed="random"/>
  <flow id="flow_8" type="car" fromTaz="taz_0_0" toTaz="taz_2_1" begin="0" end="3600" vehsPerHour="57" departLane="free" departSpeed="random"/>
  <flow id="flow_9" type="car" fromTaz="taz_0_0" toTaz="taz_2_2" begin="0" end="3600" vehsPerHour="155" departLane="free" departSpeed="random"/>
  <flow id="flow_10" type="car" fromTaz="taz_0_0" toTaz="taz_2_3" begin="0" end="3600" vehsPerHour="35" departLane="free" departSpeed="random"/>
  <flow id="flow_11" type="car" fromTaz="taz_0_1" toTaz="taz_0_0" begin="0" end="3600" vehsPerHour="1224" departLane="free" departSpeed="random"/>
  <flow id="flow_12" type="car" fromTaz="taz_0_1" toTaz="taz_0_2" begin="0" end="3600" vehsPerHour="1674" departLane="free" departSpeed="random"/>
  <flow id="flow_13" type="car" fromTaz="taz_0_1" toTaz="taz_0_3" begin="0" end="3600" vehsPerHour="37" departLane="free" departSpeed="random"/>
  <flow id="flow_14" type="car" fromTaz="taz_0_1" toTaz="taz_1_0" begin="0" end="3600" vehsPerHour="327" departLane="free" departSpeed="random"/>
  <flow id="flow_15" type="car" fromTaz="taz_0_1" toTaz="taz_1_1" begin="0" end="3600" vehsPerHour="946" departLane="free" departSpeed="random"/>
  <flow id="flow_16" type="car" fromTaz="taz_0_1" toTaz="taz_1_2" begin="0" end="3600" vehsPerHour="966" departLane="free" departSpeed="random"/>
  <flow id="flow_17" type="car" fromTaz="taz_0_1" toTaz="taz_1_3" begin="0" end="3600" vehsPerHour="297" departLane="free" departSpeed="random"/>
  <flow id="flow_18" type="car" fromTaz="taz_0_1" toTaz="taz_2_0" begin="0" end="3600" vehsPerHour="139" departLane="free" departSpeed="random"/>
  <flow id="flow_19" type="car" fromTaz="taz_0_1" toTaz="taz_2_1" begin="0" end="3600" vehsPerHour="71" departLane="free" departSpeed="random"/>
  <flow id="flow_20" type="car" fromTaz="taz_0_1" toTaz="taz_2_2" begin="0" end="3600" vehsPerHour="223" departLane="free" departSpeed="random"/>
  <flow id="flow_21" type="car" fromTaz="taz_0_1" toTaz="taz_2_3" begin="0" end="3600" vehsPerHour="55" departLane="free" departSpeed="random"/>
  <flow id="flow_22" type="car" fromTaz="taz_0_2" toTaz="taz_0_0" begin="0" end="3600" vehsPerHour="848" departLane="free" departSpeed="random"/>
  <flow id="flow_23" type="car" fromTaz="taz_0_2" toTaz="taz_0_1" begin="0" end="3600" vehsPerHour="1674" departLane="free" departSpeed="random"/>
  <flow id="flow_24" type="car" fromTaz="taz_0_2" toTaz="taz_0_3" begin="0" end="3600" vehsPerHour="75" departLane="free" departSpeed="random"/>
  <flow id="flow_25" type="car" fromTaz="taz_0_2" toTaz="taz_1_0" begin="0" end="3600" vehsPerHour="276" departLane="free" departSpeed="random"/>
  <flow id="flow_26" type="car" fromTaz="taz_0_2" toTaz="taz_1_1" begin="0" end="3600" vehsPerHour="951" departLane="free" departSpeed="random"/>
  <flow id="flow_27" type="car" fromTaz="taz_0_2" toTaz="taz_1_2" begin="0" end="3600" vehsPerHour="1350" departLane="free" departSpeed="random"/>
  <flow id="flow_28" type="car" fromTaz="taz_0_2" toTaz="taz_1_3" begin="0" end="3600" vehsPerHour="503" departLane="free" departSpeed="random"/>
  <flow id="flow_29" type="car" fromTaz="taz_0_2" toTaz="taz_2_0" begin="0" end="3600" vehsPerHour="131" departLane="free" departSpeed="random"/>
  <flow id="flow_30" type="car" fromTaz="taz_0_2" toTaz="taz_2_1" begin="0" end="3600" vehsPerHour="79" departLane="free" departSpeed="random"/>
  <flow id="flow_31" type="car" fromTaz="taz_0_2" toTaz="taz_2_2" begin="0" end="3600" vehsPerHour="286" departLane="free" departSpeed="random"/>
  <flow id="flow_32" type="car" fromTaz="taz_0_2" toTaz="taz_2_3" begin="0" end="3600" vehsPerHour="81" departLane="free" departSpeed="random"/>
  <flow id="flow_33" type="car" fromTaz="taz_0_3" toTaz="taz_0_0" begin="0" end="3600" vehsPerHour="19" departLane="free" departSpeed="random"/>
  <flow id="flow_34" type="car" fromTaz="taz_0_3" toTaz="taz_0_1" begin="0" end="3600" vehsPerHour="37" departLane="free" departSpeed="random"/>
  <flow id="flow_35" type="car" fromTaz="taz_0_3" toTaz="taz_0_2" begin="0" end="3600" vehsPerHour="75" departLane="free" departSpeed="random"/>
  <flow id="flow_36" type="car" fromTaz="taz_0_3" toTaz="taz_1_0" begin="0" end="3600" vehsPerHour="7" departLane="free" departSpeed="random"/>
  <flow id="flow_37" type="car" fromTaz="taz_0_3" toTaz="taz_1_1" begin="0" end="3600" vehsPerHour="25" departLane="free" departSpeed="random"/>
  <flow id="flow_38" type="car" fromTaz="taz_0_3" toTaz="taz_1_2" begin="0" end="3600" vehsPerHour="44" departLane="free" departSpeed="random"/>
  <flow id="flow_39" type="car" fromTaz="taz_0_3" toTaz="taz_1_3" begin="0" end="3600" vehsPerHour="22" departLane="free" departSpeed="random"/>
  <flow id="flow_40" type="car" fromTaz="taz_0_3" toTaz="taz_2_0" begin="0" end="3600" vehsPerHour="4" departLane="free" departSpeed="random"/>
  <flow id="flow_41" type="car" fromTaz="taz_0_3" toTaz="taz_2_1" begin="0" end="3600" vehsPerHour="2" departLane="free" departSpeed="random"/>
  <flow id="flow_42" type="car" fromTaz="taz_0_3" toTaz="taz_2_2" begin="0" end="3600" vehsPerHour="10" departLane="free" departSpeed="random"/>
  <flow id="flow_43" type="car" fromTaz="taz_0_3" toTaz="taz_2_3" begin="0" end="3600" vehsPerHour="3" departLane="free" departSpeed="random"/>
  <flow id="flow_44" type="car" fromTaz="taz_1_0" toTaz="taz_0_0" begin="0" end="3600" vehsPerHour="318" departLane="free" departSpeed="random"/>
  <flow id="flow_45" type="car" fromTaz="taz_1_0" toTaz="taz_0_1" begin="0" end="3600" vehsPerHour="328" departLane="free" departSpeed="random"/>
  <flow id="flow_46" type="car" fromTaz="taz_1_0" toTaz="taz_0_2" begin="0" end="3600" vehsPerHour="276" departLane="free" departSpeed="random"/>
  <flow id="flow_47" type="car" fromTaz="taz_1_0" toTaz="taz_0_3" begin="0" end="3600" vehsPerHour="7" departLane="free" departSpeed="random"/>
  <flow id="flow_48" type="car" fromTaz="taz_1_0" toTaz="taz_1_1" begin="0" end="3600" vehsPerHour="446" departLane="free" departSpeed="random"/>
  <flow id="flow_49" type="car" fromTaz="taz_1_0" toTaz="taz_1_2" begin="0" end="3600" vehsPerHour="339" departLane="free" departSpeed="random"/>
  <flow id="flow_50" type="car" fromTaz="taz_1_0" toTaz="taz_1_3" begin="0" end="3600" vehsPerHour="90" departLane="free" departSpeed="random"/>
  <flow id="flow_51" type="car" fromTaz="taz_1_0" toTaz="taz_2_0" begin="0" end="3600" vehsPerHour="129" departLane="free" departSpeed="random"/>
  <flow id="flow_52" type="car" fromTaz="taz_1_0" toTaz="taz_2_1" begin="0" end="3600" vehsPerHour="54" departLane="free" departSpeed="random"/>
  <flow id="flow_53" type="car" fromTaz="taz_1_0" toTaz="taz_2_2" begin="0" end="3600" vehsPerHour="132" departLane="free" departSpeed="random"/>
  <flow id="flow_54" type="car" fromTaz="taz_1_0" toTaz="taz_2_3" begin="0" end="3600" vehsPerHour="26" departLane="free" departSpeed="random"/>
  <flow id="flow_55" type="car" fromTaz="taz_1_1" toTaz="taz_0_0" begin="0" end="3600" vehsPerHour="691" departLane="free" departSpeed="random"/>
  <flow id="flow_56" type="car" fromTaz="taz_1_1" toTaz="taz_0_1" begin="0" end="3600" vehsPerHour="947" departLane="free" departSpeed="random"/>
  <flow id="flow_57" type="car" fromTaz="taz_1_1" toTaz="taz_0_2" begin="0" end="3600" vehsPerHour="951" departLane="free" departSpeed="random"/>
  <flow id="flow_58" type="car" fromTaz="taz_1_1" toTaz="taz_0_3" begin="0" end="3600" vehsPerHour="25" departLane="free" departSpeed="random"/>
  <flow id="flow_59" type="car" fromTaz="taz_1_1" toTaz="taz_1_0" begin="0" end="3600" vehsPerHour="446" departLane="free" departSpeed="random"/>
  <flow id="flow_60" type="car" fromTaz="taz_1_1" toTaz="taz_1_2" begin="0" end="3600" vehsPerHour="1252" departLane="free" departSpeed="random"/>
  <flow id="flow_61" type="car" fromTaz="taz_1_1" toTaz="taz_1_3" begin="0" end="3600" vehsPerHour="332" departLane="free" departSpeed="random"/>
  <flow id="flow_62" type="car" fromTaz="taz_1_1" toTaz="taz_2_0" begin="0" end="3600" vehsPerHour="230" departLane="free" departSpeed="random"/>
  <flow id="flow_63" type="car" fromTaz="taz_1_1" toTaz="taz_2_1" begin="0" end="3600" vehsPerHour="126" departLane="free" departSpeed="random"/>
  <flow id="flow_64" type="car" fromTaz="taz_1_1" toTaz="taz_2_2" begin="0" end="3600" vehsPerHour="375" departLane="free" departSpeed="random"/>
  <flow id="flow_65" type="car" fromTaz="taz_1_1" toTaz="taz_2_3" begin="0" end="3600" vehsPerHour="84" departLane="free" departSpeed="random"/>
  <flow id="flow_66" type="car" fromTaz="taz_1_2" toTaz="taz_0_0" begin="0" end="3600" vehsPerHour="580" departLane="free" departSpeed="random"/>
  <flow id="flow_67" type="car" fromTaz="taz_1_2" toTaz="taz_0_1" begin="0" end="3600" vehsPerHour="966" departLane="free" departSpeed="random"/>
  <flow id="flow_68" type="car" fromTaz="taz_1_2" toTaz="taz_0_2" begin="0" end="3600" vehsPerHour="1351" departLane="free" departSpeed="random"/>
  <flow id="flow_69" type="car" fromTaz="taz_1_2" toTaz="taz_0_3" begin="0" end="3600" vehsPerHour="44" departLane="free" departSpeed="random"/>
  <flow id="flow_70" type="car" fromTaz="taz_1_2" toTaz="taz_1_0" begin="0" end="3600" vehsPerHour="339" departLane="free" departSpeed="random"/>
  <flow id="flow_71" type="car" fromTaz="taz_1_2" toTaz="taz_1_1" begin="0" end="3600" vehsPerHour="1252" departLane="free" departSpeed="random"/>
  <flow id="flow_72" type="car" fromTaz="taz_1_2" toTaz="taz_1_3" begin="0" end="3600" vehsPerHour="733" departLane="free" departSpeed="random"/>
  <flow id="flow_73" type="car" fromTaz="taz_1_2" toTaz="taz_2_0" begin="0" end="3600" vehsPerHour="216" departLane="free" departSpeed="random"/>
  <flow id="flow_74" type="car" fromTaz="taz_1_2" toTaz="taz_2_1" begin="0" end="3600" vehsPerHour="151" departLane="free" departSpeed="random"/>
  <flow id="flow_75" type="car" fromTaz="taz_1_2" toTaz="taz_2_2" begin="0" end="3600" vehsPerHour="586" departLane="free" departSpeed="random"/>
  <flow id="flow_76" type="car" fromTaz="taz_1_2" toTaz="taz_2_3" begin="0" end="3600" vehsPerHour="158" departLane="free" departSpeed="random"/>
  <flow id="flow_77" type="car" fromTaz="taz_1_3" toTaz="taz_0_0" begin="0" end="3600" vehsPerHour="165" departLane="free" departSpeed="random"/>
  <flow id="flow_78" type="car" fromTaz="taz_1_3" toTaz="taz_0_1" begin="0" end="3600" vehsPerHour="297" departLane="free" departSpeed="random"/>
  <flow id="flow_79" type="car" fromTaz="taz_1_3" toTaz="taz_0_2" begin="0" end="3600" vehsPerHour="503" departLane="free" departSpeed="random"/>
  <flow id="flow_80" type="car" fromTaz="taz_1_3" toTaz="taz_0_3" begin="0" end="3600" vehsPerHour="22" departLane="free" departSpeed="random"/>
  <flow id="flow_81" type="car" fromTaz="taz_1_3" toTaz="taz_1_0" begin="0" end="3600" vehsPerHour="90" departLane="free" departSpeed="random"/>
  <flow id="flow_82" type="car" fromTaz="taz_1_3" toTaz="taz_1_1" begin="0" end="3600" vehsPerHour="332" departLane="free" departSpeed="random"/>
  <flow id="flow_83" type="car" fromTaz="taz_1_3" toTaz="taz_1_2" begin="0" end="3600" vehsPerHour="733" departLane="free" departSpeed="random"/>
  <flow id="flow_84" type="car" fromTaz="taz_1_3" toTaz="taz_2_0" begin="0" end="3600" vehsPerHour="62" departLane="free" departSpeed="random"/>
  <flow id="flow_85" type="car" fromTaz="taz_1_3" toTaz="taz_2_1" begin="0" end="3600" vehsPerHour="49" departLane="free" departSpeed="random"/>
  <flow id="flow_86" type="car" fromTaz="taz_1_3" toTaz="taz_2_2" begin="0" end="3600" vehsPerHour="228" departLane="free" departSpeed="random"/>
  <flow id="flow_87" type="car" fromTaz="taz_1_3" toTaz="taz_2_3" begin="0" end="3600" vehsPerHour="78" departLane="free" departSpeed="random"/>
  <flow id="flow_88" type="car" fromTaz="taz_2_0" toTaz="taz_0_0" begin="0" end="3600" vehsPerHour="130" departLane="free" departSpeed="random"/>
  <flow id="flow_89" type="car" fromTaz="taz_2_0" toTaz="taz_0_1" begin="0" end="3600" vehsPerHour="139" departLane="free" departSpeed="random"/>
  <flow id="flow_90" type="car" fromTaz="taz_2_0" toTaz="taz_0_2" begin="0" end="3600" vehsPerHour="131" departLane="free" departSpeed="random"/>
  <flow id="flow_91" type="car" fromTaz="taz_2_0" toTaz="taz_0_3" begin="0" end="3600" vehsPerHour="4" departLane="free" departSpeed="random"/>
  <flow id="flow_92" type="car" fromTaz="taz_2_0" toTaz="taz_1_0" begin="0" end="3600" vehsPerHour="129" departLane="free" departSpeed="random"/>
  <flow id="flow_93" type="car" fromTaz="taz_2_0" toTaz="taz_1_1" begin="0" end="3600" vehsPerHour="230" departLane="free" departSpeed="random"/>
  <flow id="flow_94" type="car" fromTaz="taz_2_0" toTaz="taz_1_2" begin="0" end="3600" vehsPerHour="216" departLane="free" departSpeed="random"/>
  <flow id="flow_95" type="car" fromTaz="taz_2_0" toTaz="taz_1_3" begin="0" end="3600" vehsPerHour="62" departLane="free" departSpeed="random"/>
  <flow id="flow_96" type="car" fromTaz="taz_2_0" toTaz="taz_2_1" begin="0" end="3600" vehsPerHour="78" departLane="free" departSpeed="random"/>
  <flow id="flow_97" type="car" fromTaz="taz_2_0" toTaz="taz_2_2" begin="0" end="3600" vehsPerHour="158" departLane="free" departSpeed="random"/>
  <flow id="flow_98" type="car" fromTaz="taz_2_0" toTaz="taz_2_3" begin="0" end="3600" vehsPerHour="28" departLane="free" departSpeed="random"/>
  <flow id="flow_99" type="car" fromTaz="taz_2_1" toTaz="taz_0_0" begin="0" end="3600" vehsPerHour="57" departLane="free" departSpeed="random"/>
  <flow id="flow_100" type="car" fromTaz="taz_2_1" toTaz="taz_0_1" begin="0" end="3600" vehsPerHour="72" departLane="free" departSpeed="random"/>
  <flow id="flow_101" type="car" fromTaz="taz_2_1" toTaz="taz_0_2" begin="0" end="3600" vehsPerHour="79" departLane="free" departSpeed="random"/>
  <flow id="flow_102" type="car" fromTaz="taz_2_1" toTaz="taz_0_3" begin="0" end="3600" vehsPerHour="2" departLane="free" departSpeed="random"/>
  <flow id="flow_103" type="car" fromTaz="taz_2_1" toTaz="taz_1_0" begin="0" end="3600" vehsPerHour="54" departLane="free" departSpeed="random"/>
  <flow id="flow_104" type="car" fromTaz="taz_2_1" toTaz="taz_1_1" begin="0" end="3600" vehsPerHour="126" departLane="free" departSpeed="random"/>
  <flow id="flow_105" type="car" fromTaz="taz_2_1" toTaz="taz_1_2" begin="0" end="3600" vehsPerHour="152" departLane="free" departSpeed="random"/>
  <flow id="flow_106" type="car" fromTaz="taz_2_1" toTaz="taz_1_3" begin="0" end="3600" vehsPerHour="49" departLane="free" departSpeed="random"/>
  <flow id="flow_107" type="car" fromTaz="taz_2_1" toTaz="taz_2_0" begin="0" end="3600" vehsPerHour="78" departLane="free" departSpeed="random"/>
  <flow id="flow_108" type="car" fromTaz="taz_2_1" toTaz="taz_2_2" begin="0" end="3600" vehsPerHour="148" departLane="free" departSpeed="random"/>
  <flow id="flow_109" type="car" fromTaz="taz_2_1" toTaz="taz_2_3" begin="0" end="3600" vehsPerHour="26" departLane="free" departSpeed="random"/>
  <flow id="flow_110" type="car" fromTaz="taz_2_2" toTaz="taz_0_0" begin="0" end="3600" vehsPerHour="156" departLane="free" departSpeed="random"/>
  <flow id="flow_111" type="car" fromTaz="taz_2_2" toTaz="taz_0_1" begin="0" end="3600" vehsPerHour="223" departLane="free" departSpeed="random"/>
  <flow id="flow_112" type="car" fromTaz="taz_2_2" toTaz="taz_0_2" begin="0" end="3600" vehsPerHour="286" departLane="free" departSpeed="random"/>
  <flow id="flow_113" type="car" fromTaz="taz_2_2" toTaz="taz_0_3" begin="0" end="3600" vehsPerHour="10" departLane="free" departSpeed="random"/>
  <flow id="flow_114" type="car" fromTaz="taz_2_2" toTaz="taz_1_0" begin="0" end="3600" vehsPerHour="133" departLane="free" departSpeed="random"/>
  <flow id="flow_115" type="car" fromTaz="taz_2_2" toTaz="taz_1_1" begin="0" end="3600" vehsPerHour="375" departLane="free" departSpeed="random"/>
  <flow id="flow_116" type="car" fromTaz="taz_2_2" toTaz="taz_1_2" begin="0" end="3600" vehsPerHour="586" departLane="free" departSpeed="random"/>
  <flow id="flow_117" type="car" fromTaz="taz_2_2" toTaz="taz_1_3" begin="0" end="3600" vehsPerHour="228" departLane="free" departSpeed="random"/>
  <flow id="flow_118" type="car" fromTaz="taz_2_2" toTaz="taz_2_0" begin="0" end="3600" vehsPerHour="158" departLane="free" departSpeed="random"/>
  <flow id="flow_119" type="car" fromTaz="taz_2_2" toTaz="taz_2_1" begin="0" end="3600" vehsPerHour="148" departLane="free" departSpeed="random"/>
  <flow id="flow_120" type="car" fromTaz="taz_2_2" toTaz="taz_2_3" begin="0" end="3600" vehsPerHour="147" departLane="free" departSpeed="random"/>
  <flow id="flow_121" type="car" fromTaz="taz_2_3" toTaz="taz_0_0" begin="0" end="3600" vehsPerHour="35" departLane="free" departSpeed="random"/>
  <flow id="flow_122" type="car" fromTaz="taz_2_3" toTaz="taz_0_1" begin="0" end="3600" vehsPerHour="55" departLane="free" departSpeed="random"/>
  <flow id="flow_123" type="car" fromTaz="taz_2_3" toTaz="taz_0_2" begin="0" end="3600" vehsPerHour="81" departLane="free" departSpeed="random"/>
  <flow id="flow_124" type="car" fromTaz="taz_2_3" toTaz="taz_0_3" begin="0" end="3600" vehsPerHour="3" departLane="free" departSpeed="random"/>
  <flow id="flow_125" type="car" fromTaz="taz_2_3" toTaz="taz_1_0" begin="0" end="3600" vehsPerHour="26" departLane="free" departSpeed="random"/>
  <flow id="flow_126" type="car" fromTaz="taz_2_3" toTaz="taz_1_1" begin="0" end="3600" vehsPerHour="84" departLane="free" departSpeed="random"/>
  <flow id="flow_127" type="car" fromTaz="taz_2_3" toTaz="taz_1_2" begin="0" end="3600" vehsPerHour="158" departLane="free" departSpeed="random"/>
  <flow id="flow_128" type="car" fromTaz="taz_2_3" toTaz="taz_1_3" begin="0" end="3600" vehsPerHour="78" departLane="free" departSpeed="random"/>
  <flow id="flow_129" type="car" fromTaz="taz_2_3" toTaz="taz_2_0" begin="0" end="3600" vehsPerHour="28" departLane="free" departSpeed="random"/>
  <flow id="flow_130" type="car" fromTaz="taz_2_3" toTaz="taz_2_1" begin="0" end="3600" vehsPerHour="26" departLane="free" departSpeed="random"/>
  <flow id="flow_131" type="car" fromTaz="taz_2_3" toTaz="taz_2_2" begin="0" end="3600" vehsPerHour="147" departLane="free" departSpeed="random"/>
</routes>
