<?xml version="1.0" encoding="UTF-8"?>
<additional>
  <taz id="taz_0_0">
    <tazSource id="-1056898481#3" weight="1"/>
    <tazSink id="-1056898481#3" weight="1"/>
    <tazSource id="-12100762#1" weight="1"/>
    <tazSink id="-12100762#1" weight="1"/>
    <tazSource id="-12100762#4" weight="1"/>
    <tazSink id="-12100762#4" weight="1"/>
    <tazSource id="-12100762#5" weight="1"/>
    <tazSink id="-12100762#5" weight="1"/>
    <tazSource id="-12100762#6" weight="1"/>
    <tazSink id="-12100762#6" weight="1"/>
    <tazSource id="-12100762#7" weight="1"/>
    <tazSink id="-12100762#7" weight="1"/>
    <tazSource id="-1218413316#3" weight="1"/>
    <tazSink id="-1218413316#3" weight="1"/>
    <tazSource id="-1218664354#0" weight="1"/>
    <tazSink id="-1218664354#0" weight="1"/>
    <tazSource id="-1218664354#1" weight="1"/>
    <tazSink id="-1218664354#1" weight="1"/>
    <tazSource id="-1218664355" weight="1"/>
    <tazSink id="-1218664355" weight="1"/>
    <tazSource id="-1218664357#0" weight="1"/>
    <tazSink id="-1218664357#0" weight="1"/>
    <tazSource id="-1218664357#1" weight="1"/>
    <tazSink id="-1218664357#1" weight="1"/>
    <tazSource id="-1218664357#2" weight="1"/>
    <tazSink id="-1218664357#2" weight="1"/>
    <tazSource id="-1218664357#4" weight="1"/>
    <tazSink id="-1218664357#4" weight="1"/>
    <tazSource id="-1218664358#0" weight="1"/>
    <tazSink id="-1218664358#0" weight="1"/>
    <tazSource id="-1218664358#1" weight="1"/>
    <tazSink id="-1218664358#1" weight="1"/>
    <tazSource id="-1218664359#0" weight="1"/>
    <tazSink id="-1218664359#0" weight="1"/>
    <tazSource id="-1218664359#1" weight="1"/>
    <tazSink id="-1218664359#1" weight="1"/>
    <tazSource id="-1218664361#0" weight="1"/>
    <tazSink id="-1218664361#0" weight="1"/>
    <tazSource id="-1270794199#10" weight="1"/>
    <tazSink id="-1270794199#10" weight="1"/>
    <tazSource id="-1270794199#11" weight="1"/>
    <tazSink id="-1270794199#11" weight="1"/>
    <tazSource id="-1270794199#7" weight="1"/>
    <tazSink id="-1270794199#7" weight="1"/>
    <tazSource id="-1271194875#0" weight="1"/>
    <tazSink id="-1271194875#0" weight="1"/>
    <tazSource id="-1271194875#1" weight="1"/>
    <tazSink id="-1271194875#1" weight="1"/>
    <tazSource id="-1271194875#2" weight="1"/>
    <tazSink id="-1271194875#2" weight="1"/>
    <tazSource id="-1271194875#3" weight="1"/>
    <tazSink id="-1271194875#3" weight="1"/>
    <tazSource id="-1271854207#1" weight="1"/>
    <tazSink id="-1271854207#1" weight="1"/>
    <tazSource id="-1272736252#2" weight="1"/>
    <tazSink id="-1272736252#2" weight="1"/>
    <tazSource id="-1272736252#3" weight="1"/>
    <tazSink id="-1272736252#3" weight="1"/>
    <tazSource id="-130058340#1" weight="1"/>
    <tazSink id="-130058340#1" weight="1"/>
    <tazSource id="-130058340#2" weight="1"/>
    <tazSink id="-130058340#2" weight="1"/>
    <tazSource id="-130058340#3" weight="1"/>
    <tazSink id="-130058340#3" weight="1"/>
    <tazSource id="-130359884#0" weight="1"/>
    <tazSink id="-130359884#0" weight="1"/>
    <tazSource id="-130359884#10" weight="1"/>
    <tazSink id="-130359884#10" weight="1"/>
    <tazSource id="-130359884#16" weight="1"/>
    <tazSink id="-130359884#16" weight="1"/>
    <tazSource id="-130359884#2" weight="1"/>
    <tazSink id="-130359884#2" weight="1"/>
    <tazSource id="-130359884#6" weight="1"/>
    <tazSink id="-130359884#6" weight="1"/>
    <tazSource id="-130359884#9" weight="1"/>
    <tazSink id="-130359884#9" weight="1"/>
    <tazSource id="-1327947443#3" weight="1"/>
    <tazSink id="-1327947443#3" weight="1"/>
    <tazSource id="-132936844#2" weight="1"/>
    <tazSink id="-132936844#2" weight="1"/>
    <tazSource id="-132936844#5" weight="1"/>
    <tazSink id="-132936844#5" weight="1"/>
    <tazSource id="-132936844#9" weight="1"/>
    <tazSink id="-132936844#9" weight="1"/>
    <tazSource id="-133892554" weight="1"/>
    <tazSink id="-133892554" weight="1"/>
    <tazSource id="-133892558#1" weight="1"/>
    <tazSink id="-133892558#1" weight="1"/>
    <tazSource id="-133892558#3" weight="1"/>
    <tazSink id="-133892558#3" weight="1"/>
    <tazSource id="-133892561#0" weight="1"/>
    <tazSink id="-133892561#0" weight="1"/>
    <tazSource id="-133892561#1" weight="1"/>
    <tazSink id="-133892561#1" weight="1"/>
    <tazSource id="-133892561#2" weight="1"/>
    <tazSink id="-133892561#2" weight="1"/>
    <tazSource id="-133892562#0" weight="1"/>
    <tazSink id="-133892562#0" weight="1"/>
    <tazSource id="-1362148025#1" weight="1"/>
    <tazSink id="-1362148025#1" weight="1"/>
    <tazSource id="-1362148026#2" weight="1"/>
    <tazSink id="-1362148026#2" weight="1"/>
    <tazSource id="-1362148026#4" weight="1"/>
    <tazSink id="-1362148026#4" weight="1"/>
    <tazSource id="-1409509960#2" weight="1"/>
    <tazSink id="-1409509960#2" weight="1"/>
    <tazSource id="-1409509960#4" weight="1"/>
    <tazSink id="-1409509960#4" weight="1"/>
    <tazSource id="-1409509960#5" weight="1"/>
    <tazSink id="-1409509960#5" weight="1"/>
    <tazSource id="-1409509960#6" weight="1"/>
    <tazSink id="-1409509960#6" weight="1"/>
    <tazSource id="-1417089648" weight="1"/>
    <tazSink id="-1417089648" weight="1"/>
    <tazSource id="-1442626581" weight="1"/>
    <tazSink id="-1442626581" weight="1"/>
    <tazSource id="-163216718#1" weight="1"/>
    <tazSink id="-163216718#1" weight="1"/>
    <tazSource id="-163216718#2" weight="1"/>
    <tazSink id="-163216718#2" weight="1"/>
    <tazSource id="-163216718#3" weight="1"/>
    <tazSink id="-163216718#3" weight="1"/>
    <tazSource id="-163216718#6" weight="1"/>
    <tazSink id="-163216718#6" weight="1"/>
    <tazSource id="-163216718#7" weight="1"/>
    <tazSink id="-163216718#7" weight="1"/>
    <tazSource id="-163216720#1" weight="1"/>
    <tazSink id="-163216720#1" weight="1"/>
    <tazSource id="-163216720#4" weight="1"/>
    <tazSink id="-163216720#4" weight="1"/>
    <tazSource id="-163303431#1" weight="1"/>
    <tazSink id="-163303431#1" weight="1"/>
    <tazSource id="-163303431#2" weight="1"/>
    <tazSink id="-163303431#2" weight="1"/>
    <tazSource id="-163303431#5" weight="1"/>
    <tazSink id="-163303431#5" weight="1"/>
    <tazSource id="-163303432#1" weight="1"/>
    <tazSink id="-163303432#1" weight="1"/>
    <tazSource id="-163303432#10" weight="1"/>
    <tazSink id="-163303432#10" weight="1"/>
    <tazSource id="-163303432#11" weight="1"/>
    <tazSink id="-163303432#11" weight="1"/>
    <tazSource id="-163303432#12" weight="1"/>
    <tazSink id="-163303432#12" weight="1"/>
    <tazSource id="-163303432#2" weight="1"/>
    <tazSink id="-163303432#2" weight="1"/>
    <tazSource id="-163303432#4" weight="1"/>
    <tazSink id="-163303432#4" weight="1"/>
    <tazSource id="-163303436#1" weight="1"/>
    <tazSink id="-163303436#1" weight="1"/>
    <tazSource id="-163303442#1" weight="1"/>
    <tazSink id="-163303442#1" weight="1"/>
    <tazSource id="-163303442#2" weight="1"/>
    <tazSink id="-163303442#2" weight="1"/>
    <tazSource id="-163303443#1" weight="1"/>
    <tazSink id="-163303443#1" weight="1"/>
    <tazSource id="-163303444#0" weight="1"/>
    <tazSink id="-163303444#0" weight="1"/>
    <tazSource id="-163303444#3" weight="1"/>
    <tazSink id="-163303444#3" weight="1"/>
    <tazSource id="-163303445#1" weight="1"/>
    <tazSink id="-163303445#1" weight="1"/>
    <tazSource id="-163303454#0" weight="1"/>
    <tazSink id="-163303454#0" weight="1"/>
    <tazSource id="-163303454#1" weight="1"/>
    <tazSink id="-163303454#1" weight="1"/>
    <tazSource id="-163303454#2" weight="1"/>
    <tazSink id="-163303454#2" weight="1"/>
    <tazSource id="-163303455#3" weight="1"/>
    <tazSink id="-163303455#3" weight="1"/>
    <tazSource id="-163303455#4" weight="1"/>
    <tazSink id="-163303455#4" weight="1"/>
    <tazSource id="-163303455#6" weight="1"/>
    <tazSink id="-163303455#6" weight="1"/>
    <tazSource id="-163303455#7" weight="1"/>
    <tazSink id="-163303455#7" weight="1"/>
    <tazSource id="-163303462" weight="1"/>
    <tazSink id="-163303462" weight="1"/>
    <tazSource id="-163303465#1" weight="1"/>
    <tazSink id="-163303465#1" weight="1"/>
    <tazSource id="-163303465#2" weight="1"/>
    <tazSink id="-163303465#2" weight="1"/>
    <tazSource id="-163303465#5" weight="1"/>
    <tazSink id="-163303465#5" weight="1"/>
    <tazSource id="-163303465#6" weight="1"/>
    <tazSink id="-163303465#6" weight="1"/>
    <tazSource id="-163317172#1" weight="1"/>
    <tazSink id="-163317172#1" weight="1"/>
    <tazSource id="-163317172#2" weight="1"/>
    <tazSink id="-163317172#2" weight="1"/>
    <tazSource id="-163317182#0" weight="1"/>
    <tazSink id="-163317182#0" weight="1"/>
    <tazSource id="-163317182#1" weight="1"/>
    <tazSink id="-163317182#1" weight="1"/>
    <tazSource id="-163317182#2" weight="1"/>
    <tazSink id="-163317182#2" weight="1"/>
    <tazSource id="-163317182#3" weight="1"/>
    <tazSink id="-163317182#3" weight="1"/>
    <tazSource id="-163317182#4" weight="1"/>
    <tazSink id="-163317182#4" weight="1"/>
    <tazSource id="-163317182#5" weight="1"/>
    <tazSink id="-163317182#5" weight="1"/>
    <tazSource id="-163317191#1" weight="1"/>
    <tazSink id="-163317191#1" weight="1"/>
    <tazSource id="-163317191#2" weight="1"/>
    <tazSink id="-163317191#2" weight="1"/>
    <tazSource id="-163317191#3" weight="1"/>
    <tazSink id="-163317191#3" weight="1"/>
    <tazSource id="-163317191#4" weight="1"/>
    <tazSink id="-163317191#4" weight="1"/>
    <tazSource id="-163317191#6" weight="1"/>
    <tazSink id="-163317191#6" weight="1"/>
    <tazSource id="-163317191#9" weight="1"/>
    <tazSink id="-163317191#9" weight="1"/>
    <tazSource id="-163317195#1" weight="1"/>
    <tazSink id="-163317195#1" weight="1"/>
    <tazSource id="-163317203#2" weight="1"/>
    <tazSink id="-163317203#2" weight="1"/>
    <tazSource id="-163317203#3" weight="1"/>
    <tazSink id="-163317203#3" weight="1"/>
    <tazSource id="-163317203#4" weight="1"/>
    <tazSink id="-163317203#4" weight="1"/>
    <tazSource id="-163317203#5" weight="1"/>
    <tazSink id="-163317203#5" weight="1"/>
    <tazSource id="-163317203#6" weight="1"/>
    <tazSink id="-163317203#6" weight="1"/>
    <tazSource id="-166789710#2" weight="1"/>
    <tazSink id="-166789710#2" weight="1"/>
    <tazSource id="-171069260#3" weight="1"/>
    <tazSink id="-171069260#3" weight="1"/>
    <tazSource id="-172359842#5" weight="1"/>
    <tazSink id="-172359842#5" weight="1"/>
    <tazSource id="-172359842#6" weight="1"/>
    <tazSink id="-172359842#6" weight="1"/>
    <tazSource id="-172447844#1" weight="1"/>
    <tazSink id="-172447844#1" weight="1"/>
    <tazSource id="-172447844#2" weight="1"/>
    <tazSink id="-172447844#2" weight="1"/>
    <tazSource id="-172447844#4" weight="1"/>
    <tazSink id="-172447844#4" weight="1"/>
    <tazSource id="-172449239#1" weight="1"/>
    <tazSink id="-172449239#1" weight="1"/>
    <tazSource id="-172449241#2" weight="1"/>
    <tazSink id="-172449241#2" weight="1"/>
    <tazSource id="-172449242#0" weight="1"/>
    <tazSink id="-172449242#0" weight="1"/>
    <tazSource id="-172449242#1" weight="1"/>
    <tazSink id="-172449242#1" weight="1"/>
    <tazSource id="-172449242#3" weight="1"/>
    <tazSink id="-172449242#3" weight="1"/>
    <tazSource id="-172449242#6" weight="1"/>
    <tazSink id="-172449242#6" weight="1"/>
    <tazSource id="-172449244#0" weight="1"/>
    <tazSink id="-172449244#0" weight="1"/>
    <tazSource id="-172449244#2" weight="1"/>
    <tazSink id="-172449244#2" weight="1"/>
    <tazSource id="-172449244#3" weight="1"/>
    <tazSink id="-172449244#3" weight="1"/>
    <tazSource id="-172449244#4" weight="1"/>
    <tazSink id="-172449244#4" weight="1"/>
    <tazSource id="-172449837" weight="1"/>
    <tazSink id="-172449837" weight="1"/>
    <tazSource id="-173158424#1" weight="1"/>
    <tazSink id="-173158424#1" weight="1"/>
    <tazSource id="-173158424#3" weight="1"/>
    <tazSink id="-173158424#3" weight="1"/>
    <tazSource id="-174414229#1" weight="1"/>
    <tazSink id="-174414229#1" weight="1"/>
    <tazSource id="-174414230#1" weight="1"/>
    <tazSink id="-174414230#1" weight="1"/>
    <tazSource id="-174414230#2" weight="1"/>
    <tazSink id="-174414230#2" weight="1"/>
    <tazSource id="-174414230#4" weight="1"/>
    <tazSink id="-174414230#4" weight="1"/>
    <tazSource id="-174414230#5" weight="1"/>
    <tazSink id="-174414230#5" weight="1"/>
    <tazSource id="-17557365#4" weight="1"/>
    <tazSink id="-17557365#4" weight="1"/>
    <tazSource id="-17557375#1" weight="1"/>
    <tazSink id="-17557375#1" weight="1"/>
    <tazSource id="-17557375#12" weight="1"/>
    <tazSink id="-17557375#12" weight="1"/>
    <tazSource id="-17557375#13" weight="1"/>
    <tazSink id="-17557375#13" weight="1"/>
    <tazSource id="-17557375#14" weight="1"/>
    <tazSink id="-17557375#14" weight="1"/>
    <tazSource id="-17557375#5" weight="1"/>
    <tazSink id="-17557375#5" weight="1"/>
    <tazSource id="-17557375#6" weight="1"/>
    <tazSink id="-17557375#6" weight="1"/>
    <tazSource id="-17557375#9" weight="1"/>
    <tazSink id="-17557375#9" weight="1"/>
    <tazSource id="-17557382#0" weight="1"/>
    <tazSink id="-17557382#0" weight="1"/>
    <tazSource id="-17557382#1" weight="1"/>
    <tazSink id="-17557382#1" weight="1"/>
    <tazSource id="-17557382#2" weight="1"/>
    <tazSink id="-17557382#2" weight="1"/>
    <tazSource id="-17557382#3" weight="1"/>
    <tazSink id="-17557382#3" weight="1"/>
    <tazSource id="-17557384#1" weight="1"/>
    <tazSink id="-17557384#1" weight="1"/>
    <tazSource id="-17557384#2" weight="1"/>
    <tazSink id="-17557384#2" weight="1"/>
    <tazSource id="-17557388#1" weight="1"/>
    <tazSink id="-17557388#1" weight="1"/>
    <tazSource id="-17557389#1" weight="1"/>
    <tazSink id="-17557389#1" weight="1"/>
    <tazSource id="-17557389#2" weight="1"/>
    <tazSink id="-17557389#2" weight="1"/>
    <tazSource id="-17557394#0" weight="1"/>
    <tazSink id="-17557394#0" weight="1"/>
    <tazSource id="-17557394#1" weight="1"/>
    <tazSink id="-17557394#1" weight="1"/>
    <tazSource id="-196539159#0" weight="1"/>
    <tazSink id="-196539159#0" weight="1"/>
    <tazSource id="-196539162#2" weight="1"/>
    <tazSink id="-196539162#2" weight="1"/>
    <tazSource id="-196543140#1" weight="1"/>
    <tazSink id="-196543140#1" weight="1"/>
    <tazSource id="-196543140#10" weight="1"/>
    <tazSink id="-196543140#10" weight="1"/>
    <tazSource id="-196543140#4" weight="1"/>
    <tazSink id="-196543140#4" weight="1"/>
    <tazSource id="-196543140#5" weight="1"/>
    <tazSink id="-196543140#5" weight="1"/>
    <tazSource id="-196543140#8" weight="1"/>
    <tazSink id="-196543140#8" weight="1"/>
    <tazSource id="-196543140#9" weight="1"/>
    <tazSink id="-196543140#9" weight="1"/>
    <tazSource id="-196588533#1" weight="1"/>
    <tazSink id="-196588533#1" weight="1"/>
    <tazSource id="-196588533#2" weight="1"/>
    <tazSink id="-196588533#2" weight="1"/>
    <tazSource id="-198464171#2" weight="1"/>
    <tazSink id="-198464171#2" weight="1"/>
    <tazSource id="-198464171#5" weight="1"/>
    <tazSink id="-198464171#5" weight="1"/>
    <tazSource id="-198464192#2" weight="1"/>
    <tazSink id="-198464192#2" weight="1"/>
    <tazSource id="-203206907" weight="1"/>
    <tazSink id="-203206907" weight="1"/>
    <tazSource id="-203206909#0" weight="1"/>
    <tazSink id="-203206909#0" weight="1"/>
    <tazSource id="-203206911#1" weight="1"/>
    <tazSink id="-203206911#1" weight="1"/>
    <tazSource id="-203206912#1" weight="1"/>
    <tazSink id="-203206912#1" weight="1"/>
    <tazSource id="-203206912#13" weight="1"/>
    <tazSink id="-203206912#13" weight="1"/>
    <tazSource id="-203206912#2" weight="1"/>
    <tazSink id="-203206912#2" weight="1"/>
    <tazSource id="-203206912#6" weight="1"/>
    <tazSink id="-203206912#6" weight="1"/>
    <tazSource id="-203406153#2" weight="1"/>
    <tazSink id="-203406153#2" weight="1"/>
    <tazSource id="-203406153#3" weight="1"/>
    <tazSink id="-203406153#3" weight="1"/>
    <tazSource id="-203406153#4" weight="1"/>
    <tazSink id="-203406153#4" weight="1"/>
    <tazSource id="-203406153#7" weight="1"/>
    <tazSink id="-203406153#7" weight="1"/>
    <tazSource id="-203406167#2" weight="1"/>
    <tazSink id="-203406167#2" weight="1"/>
    <tazSource id="-203406167#4" weight="1"/>
    <tazSink id="-203406167#4" weight="1"/>
    <tazSource id="-203406179#2" weight="1"/>
    <tazSink id="-203406179#2" weight="1"/>
    <tazSource id="-203406179#3" weight="1"/>
    <tazSink id="-203406179#3" weight="1"/>
    <tazSource id="-203406179#5" weight="1"/>
    <tazSink id="-203406179#5" weight="1"/>
    <tazSource id="-203406179#7" weight="1"/>
    <tazSink id="-203406179#7" weight="1"/>
    <tazSource id="-203406182#2" weight="1"/>
    <tazSink id="-203406182#2" weight="1"/>
    <tazSource id="-203406182#3" weight="1"/>
    <tazSink id="-203406182#3" weight="1"/>
    <tazSource id="-203406182#6" weight="1"/>
    <tazSink id="-203406182#6" weight="1"/>
    <tazSource id="-203406182#7" weight="1"/>
    <tazSink id="-203406182#7" weight="1"/>
    <tazSource id="-203406182#8" weight="1"/>
    <tazSink id="-203406182#8" weight="1"/>
    <tazSource id="-237300054#0" weight="1"/>
    <tazSink id="-237300054#0" weight="1"/>
    <tazSource id="-237300054#1" weight="1"/>
    <tazSink id="-237300054#1" weight="1"/>
    <tazSource id="-237300054#2" weight="1"/>
    <tazSink id="-237300054#2" weight="1"/>
    <tazSource id="-237300054#6" weight="1"/>
    <tazSink id="-237300054#6" weight="1"/>
    <tazSource id="-237300055#1" weight="1"/>
    <tazSink id="-237300055#1" weight="1"/>
    <tazSource id="-237300055#11" weight="1"/>
    <tazSink id="-237300055#11" weight="1"/>
    <tazSource id="-237300055#12" weight="1"/>
    <tazSink id="-237300055#12" weight="1"/>
    <tazSource id="-237300055#2" weight="1"/>
    <tazSink id="-237300055#2" weight="1"/>
    <tazSource id="-237300055#5" weight="1"/>
    <tazSink id="-237300055#5" weight="1"/>
    <tazSource id="-237300055#8" weight="1"/>
    <tazSink id="-237300055#8" weight="1"/>
    <tazSource id="-237300056#1" weight="1"/>
    <tazSink id="-237300056#1" weight="1"/>
    <tazSource id="-237300056#11" weight="1"/>
    <tazSink id="-237300056#11" weight="1"/>
    <tazSource id="-237300056#2" weight="1"/>
    <tazSink id="-237300056#2" weight="1"/>
    <tazSource id="-237300056#5" weight="1"/>
    <tazSink id="-237300056#5" weight="1"/>
    <tazSource id="-237300056#6" weight="1"/>
    <tazSink id="-237300056#6" weight="1"/>
    <tazSource id="-237300056#8" weight="1"/>
    <tazSink id="-237300056#8" weight="1"/>
    <tazSource id="-24377744#0" weight="1"/>
    <tazSink id="-24377744#0" weight="1"/>
    <tazSource id="-24377886#1" weight="1"/>
    <tazSink id="-24377886#1" weight="1"/>
    <tazSource id="-24377886#3" weight="1"/>
    <tazSink id="-24377886#3" weight="1"/>
    <tazSource id="-24377886#7" weight="1"/>
    <tazSink id="-24377886#7" weight="1"/>
    <tazSource id="-24377886#8" weight="1"/>
    <tazSink id="-24377886#8" weight="1"/>
    <tazSource id="-24377930#2" weight="1"/>
    <tazSink id="-24377930#2" weight="1"/>
    <tazSource id="-24377930#3" weight="1"/>
    <tazSink id="-24377930#3" weight="1"/>
    <tazSource id="-24377930#4" weight="1"/>
    <tazSink id="-24377930#4" weight="1"/>
    <tazSource id="-24377930#5" weight="1"/>
    <tazSink id="-24377930#5" weight="1"/>
    <tazSource id="-24377930#6" weight="1"/>
    <tazSink id="-24377930#6" weight="1"/>
    <tazSource id="-24377979#1" weight="1"/>
    <tazSink id="-24377979#1" weight="1"/>
    <tazSource id="-24377979#2" weight="1"/>
    <tazSink id="-24377979#2" weight="1"/>
    <tazSource id="-24377979#3" weight="1"/>
    <tazSink id="-24377979#3" weight="1"/>
    <tazSource id="-24377979#4" weight="1"/>
    <tazSink id="-24377979#4" weight="1"/>
    <tazSource id="-24377979#5" weight="1"/>
    <tazSink id="-24377979#5" weight="1"/>
    <tazSource id="-24377979#6" weight="1"/>
    <tazSink id="-24377979#6" weight="1"/>
    <tazSource id="-24377979#7" weight="1"/>
    <tazSink id="-24377979#7" weight="1"/>
    <tazSource id="-248402410#2" weight="1"/>
    <tazSink id="-248402410#2" weight="1"/>
    <tazSource id="-248402410#3" weight="1"/>
    <tazSink id="-248402410#3" weight="1"/>
    <tazSource id="-248878770#3" weight="1"/>
    <tazSink id="-248878770#3" weight="1"/>
    <tazSource id="-248878770#4" weight="1"/>
    <tazSink id="-248878770#4" weight="1"/>
    <tazSource id="-255627354#3" weight="1"/>
    <tazSink id="-255627354#3" weight="1"/>
    <tazSource id="-255627354#6" weight="1"/>
    <tazSink id="-255627354#6" weight="1"/>
    <tazSource id="-32000977#0" weight="1"/>
    <tazSink id="-32000977#0" weight="1"/>
    <tazSource id="-32000977#1" weight="1"/>
    <tazSink id="-32000977#1" weight="1"/>
    <tazSource id="-32000977#11" weight="1"/>
    <tazSink id="-32000977#11" weight="1"/>
    <tazSource id="-32000977#2" weight="1"/>
    <tazSink id="-32000977#2" weight="1"/>
    <tazSource id="-32000977#4" weight="1"/>
    <tazSink id="-32000977#4" weight="1"/>
    <tazSource id="-32000977#5" weight="1"/>
    <tazSink id="-32000977#5" weight="1"/>
    <tazSource id="-32000977#6" weight="1"/>
    <tazSink id="-32000977#6" weight="1"/>
    <tazSource id="-32000977#9" weight="1"/>
    <tazSink id="-32000977#9" weight="1"/>
    <tazSource id="-32100428#0" weight="1"/>
    <tazSink id="-32100428#0" weight="1"/>
    <tazSource id="-32100428#1" weight="1"/>
    <tazSink id="-32100428#1" weight="1"/>
    <tazSource id="-32516603#1" weight="1"/>
    <tazSink id="-32516603#1" weight="1"/>
    <tazSource id="-32516603#2" weight="1"/>
    <tazSink id="-32516603#2" weight="1"/>
    <tazSource id="-32516603#3" weight="1"/>
    <tazSink id="-32516603#3" weight="1"/>
    <tazSource id="-32516915#0" weight="1"/>
    <tazSink id="-32516915#0" weight="1"/>
    <tazSource id="-32516915#1" weight="1"/>
    <tazSink id="-32516915#1" weight="1"/>
    <tazSource id="-32516915#2" weight="1"/>
    <tazSink id="-32516915#2" weight="1"/>
    <tazSource id="-32516948#1" weight="1"/>
    <tazSink id="-32516948#1" weight="1"/>
    <tazSource id="-32516948#2" weight="1"/>
    <tazSink id="-32516948#2" weight="1"/>
    <tazSource id="-32516948#3" weight="1"/>
    <tazSink id="-32516948#3" weight="1"/>
    <tazSource id="-32516948#4" weight="1"/>
    <tazSink id="-32516948#4" weight="1"/>
    <tazSource id="-459593645#0" weight="1"/>
    <tazSink id="-459593645#0" weight="1"/>
    <tazSource id="-459593645#1" weight="1"/>
    <tazSink id="-459593645#1" weight="1"/>
    <tazSource id="-459593646#2" weight="1"/>
    <tazSink id="-459593646#2" weight="1"/>
    <tazSource id="-459593647#1" weight="1"/>
    <tazSink id="-459593647#1" weight="1"/>
    <tazSource id="-459593647#2" weight="1"/>
    <tazSink id="-459593647#2" weight="1"/>
    <tazSource id="-459593648#1" weight="1"/>
    <tazSink id="-459593648#1" weight="1"/>
    <tazSource id="-459593648#2" weight="1"/>
    <tazSink id="-459593648#2" weight="1"/>
    <tazSource id="-459593649#1" weight="1"/>
    <tazSink id="-459593649#1" weight="1"/>
    <tazSource id="-459850810#0" weight="1"/>
    <tazSink id="-459850810#0" weight="1"/>
    <tazSource id="-459850810#1" weight="1"/>
    <tazSink id="-459850810#1" weight="1"/>
    <tazSource id="-459851348#0" weight="1"/>
    <tazSink id="-459851348#0" weight="1"/>
    <tazSource id="-459851348#3" weight="1"/>
    <tazSink id="-459851348#3" weight="1"/>
    <tazSource id="-459851348#4" weight="1"/>
    <tazSink id="-459851348#4" weight="1"/>
    <tazSource id="-4609149#1" weight="1"/>
    <tazSink id="-4609149#1" weight="1"/>
    <tazSource id="-4609149#3" weight="1"/>
    <tazSink id="-4609149#3" weight="1"/>
    <tazSource id="-4637453#3" weight="1"/>
    <tazSink id="-4637453#3" weight="1"/>
    <tazSource id="-4637453#4" weight="1"/>
    <tazSink id="-4637453#4" weight="1"/>
    <tazSource id="-4637453#5" weight="1"/>
    <tazSink id="-4637453#5" weight="1"/>
    <tazSource id="-464115341" weight="1"/>
    <tazSink id="-464115341" weight="1"/>
    <tazSource id="-464115342#0" weight="1"/>
    <tazSink id="-464115342#0" weight="1"/>
    <tazSource id="-464706434" weight="1"/>
    <tazSink id="-464706434" weight="1"/>
    <tazSource id="-464727673" weight="1"/>
    <tazSink id="-464727673" weight="1"/>
    <tazSource id="-464727674#2" weight="1"/>
    <tazSink id="-464727674#2" weight="1"/>
    <tazSource id="-464727674#3" weight="1"/>
    <tazSink id="-464727674#3" weight="1"/>
    <tazSource id="-464727675#2" weight="1"/>
    <tazSink id="-464727675#2" weight="1"/>
    <tazSource id="-464727675#3" weight="1"/>
    <tazSink id="-464727675#3" weight="1"/>
    <tazSource id="-464727676#3" weight="1"/>
    <tazSink id="-464727676#3" weight="1"/>
    <tazSource id="-464727677#0" weight="1"/>
    <tazSink id="-464727677#0" weight="1"/>
    <tazSource id="-464727677#2" weight="1"/>
    <tazSink id="-464727677#2" weight="1"/>
    <tazSource id="-466398419" weight="1"/>
    <tazSink id="-466398419" weight="1"/>
    <tazSource id="-466603019#1" weight="1"/>
    <tazSink id="-466603019#1" weight="1"/>
    <tazSource id="-467679282#0" weight="1"/>
    <tazSink id="-467679282#0" weight="1"/>
    <tazSource id="-467679282#1" weight="1"/>
    <tazSink id="-467679282#1" weight="1"/>
    <tazSource id="-467679283#0" weight="1"/>
    <tazSink id="-467679283#0" weight="1"/>
    <tazSource id="-467679283#1" weight="1"/>
    <tazSink id="-467679283#1" weight="1"/>
    <tazSource id="-467679283#2" weight="1"/>
    <tazSink id="-467679283#2" weight="1"/>
    <tazSource id="-478822510#1" weight="1"/>
    <tazSink id="-478822510#1" weight="1"/>
    <tazSource id="-478822510#2" weight="1"/>
    <tazSink id="-478822510#2" weight="1"/>
    <tazSource id="-478822511#1" weight="1"/>
    <tazSink id="-478822511#1" weight="1"/>
    <tazSource id="-478822511#3" weight="1"/>
    <tazSink id="-478822511#3" weight="1"/>
    <tazSource id="-478822515#0" weight="1"/>
    <tazSink id="-478822515#0" weight="1"/>
    <tazSource id="-478822515#1" weight="1"/>
    <tazSink id="-478822515#1" weight="1"/>
    <tazSource id="-478822520#1" weight="1"/>
    <tazSink id="-478822520#1" weight="1"/>
    <tazSource id="-478822520#4" weight="1"/>
    <tazSink id="-478822520#4" weight="1"/>
    <tazSource id="-4826659#1" weight="1"/>
    <tazSink id="-4826659#1" weight="1"/>
    <tazSource id="-4826659#4" weight="1"/>
    <tazSink id="-4826659#4" weight="1"/>
    <tazSource id="-4826689#1" weight="1"/>
    <tazSink id="-4826689#1" weight="1"/>
    <tazSource id="-4826689#3" weight="1"/>
    <tazSink id="-4826689#3" weight="1"/>
    <tazSource id="-4826690#2" weight="1"/>
    <tazSink id="-4826690#2" weight="1"/>
    <tazSource id="-4826690#3" weight="1"/>
    <tazSink id="-4826690#3" weight="1"/>
    <tazSource id="-4826693#1" weight="1"/>
    <tazSink id="-4826693#1" weight="1"/>
    <tazSource id="-4826693#10" weight="1"/>
    <tazSink id="-4826693#10" weight="1"/>
    <tazSource id="-4826693#11" weight="1"/>
    <tazSink id="-4826693#11" weight="1"/>
    <tazSource id="-4826693#14" weight="1"/>
    <tazSink id="-4826693#14" weight="1"/>
    <tazSource id="-4826693#15" weight="1"/>
    <tazSink id="-4826693#15" weight="1"/>
    <tazSource id="-4826693#18" weight="1"/>
    <tazSink id="-4826693#18" weight="1"/>
    <tazSource id="-4826693#19" weight="1"/>
    <tazSink id="-4826693#19" weight="1"/>
    <tazSource id="-4826693#2" weight="1"/>
    <tazSink id="-4826693#2" weight="1"/>
    <tazSource id="-4826693#5" weight="1"/>
    <tazSink id="-4826693#5" weight="1"/>
    <tazSource id="-4826693#6" weight="1"/>
    <tazSink id="-4826693#6" weight="1"/>
    <tazSource id="-4826739#3" weight="1"/>
    <tazSink id="-4826739#3" weight="1"/>
    <tazSource id="-4826739#4" weight="1"/>
    <tazSink id="-4826739#4" weight="1"/>
    <tazSource id="-4826739#5" weight="1"/>
    <tazSink id="-4826739#5" weight="1"/>
    <tazSource id="-4826739#6" weight="1"/>
    <tazSink id="-4826739#6" weight="1"/>
    <tazSource id="-4830584#30" weight="1"/>
    <tazSink id="-4830584#30" weight="1"/>
    <tazSource id="-4830585#14" weight="1"/>
    <tazSink id="-4830585#14" weight="1"/>
    <tazSource id="-4830587#1" weight="1"/>
    <tazSink id="-4830587#1" weight="1"/>
    <tazSource id="-4830587#2" weight="1"/>
    <tazSink id="-4830587#2" weight="1"/>
    <tazSource id="-4830588#2" weight="1"/>
    <tazSink id="-4830588#2" weight="1"/>
    <tazSource id="-4830588#3" weight="1"/>
    <tazSink id="-4830588#3" weight="1"/>
    <tazSource id="-4830588#6" weight="1"/>
    <tazSink id="-4830588#6" weight="1"/>
    <tazSource id="-4830588#7" weight="1"/>
    <tazSink id="-4830588#7" weight="1"/>
    <tazSource id="-4830589#1" weight="1"/>
    <tazSink id="-4830589#1" weight="1"/>
    <tazSource id="-4830589#2" weight="1"/>
    <tazSink id="-4830589#2" weight="1"/>
    <tazSource id="-4830591#0" weight="1"/>
    <tazSink id="-4830591#0" weight="1"/>
    <tazSource id="-4830591#1" weight="1"/>
    <tazSink id="-4830591#1" weight="1"/>
    <tazSource id="-4830591#2" weight="1"/>
    <tazSink id="-4830591#2" weight="1"/>
    <tazSource id="-4830592#0" weight="1"/>
    <tazSink id="-4830592#0" weight="1"/>
    <tazSource id="-4830592#1" weight="1"/>
    <tazSink id="-4830592#1" weight="1"/>
    <tazSource id="-4830592#11" weight="1"/>
    <tazSink id="-4830592#11" weight="1"/>
    <tazSource id="-4830592#12" weight="1"/>
    <tazSink id="-4830592#12" weight="1"/>
    <tazSource id="-4830592#15" weight="1"/>
    <tazSink id="-4830592#15" weight="1"/>
    <tazSource id="-4830592#3" weight="1"/>
    <tazSink id="-4830592#3" weight="1"/>
    <tazSource id="-4830592#6" weight="1"/>
    <tazSink id="-4830592#6" weight="1"/>