<?xml version="1.0" encoding="UTF-8"?>
<additional>
  <taz id="ext_E">
    <tazSource id="222970218#0" weight="88000.0"/>
    <tazSink id="222970218#0" weight="88000.0"/>
    <tazSource id="-143323555#3" weight="1.0"/>
    <tazSink id="-143323555#3" weight="1.0"/>
    <tazSource id="-766734721#13" weight="1.0"/>
    <tazSink id="-766734721#13" weight="1.0"/>
    <tazSource id="766734721#13" weight="1.0"/>
    <tazSink id="766734721#13" weight="1.0"/>
    <tazSource id="4841925#1" weight="1.0"/>
    <tazSink id="4841925#1" weight="1.0"/>
    <tazSource id="143323555#3" weight="1.0"/>
    <tazSink id="143323555#3" weight="1.0"/>
    <tazSource id="4822239#30" weight="1.0"/>
    <tazSink id="4822239#30" weight="1.0"/>
    <tazSource id="-4822239#30" weight="1.0"/>
    <tazSink id="-4822239#30" weight="1.0"/>
    <tazSource id="248273317#18" weight="1.0"/>
    <tazSink id="248273317#18" weight="1.0"/>
    <tazSource id="-248273317#18" weight="1.0"/>
    <tazSink id="-248273317#18" weight="1.0"/>
    <tazSource id="766734719#21" weight="1.0"/>
    <tazSink id="766734719#21" weight="1.0"/>
    <tazSource id="-766734719#21" weight="1.0"/>
    <tazSink id="-766734719#21" weight="1.0"/>
    <tazSource id="-148781614#4" weight="1.0"/>
    <tazSink id="-148781614#4" weight="1.0"/>
    <tazSource id="148781614#4" weight="1.0"/>
    <tazSink id="148781614#4" weight="1.0"/>
    <tazSource id="-1344817441#1" weight="1.0"/>
    <tazSink id="-1344817441#1" weight="1.0"/>
    <tazSource id="1344817441#1" weight="1.0"/>
    <tazSink id="1344817441#1" weight="1.0"/>
    <tazSource id="-4860718#30" weight="1.0"/>
    <tazSink id="-4860718#30" weight="1.0"/>
    <tazSource id="196615692#0" weight="1.0"/>
    <tazSink id="196615692#0" weight="1.0"/>
    <tazSource id="-196615692#0" weight="1.0"/>
    <tazSink id="-196615692#0" weight="1.0"/>
    <tazSource id="4860718#30" weight="1.0"/>
    <tazSink id="4860718#30" weight="1.0"/>
    <tazSource id="-176278148#3" weight="1.0"/>
    <tazSink id="-176278148#3" weight="1.0"/>
    <tazSource id="-174936211#0" weight="1.0"/>
    <tazSink id="-174936211#0" weight="1.0"/>
    <tazSource id="174936211#0" weight="1.0"/>
    <tazSink id="174936211#0" weight="1.0"/>
    <tazSource id="176278148#3" weight="1.0"/>
    <tazSink id="176278148#3" weight="1.0"/>
    <tazSource id="-11902190#0" weight="1.0"/>
    <tazSink id="-11902190#0" weight="1.0"/>
  </taz>
  <taz id="ext_N">
    <tazSource id="4818578#2" weight="1.0"/>
    <tazSink id="4818578#2" weight="1.0"/>
    <tazSource id="-4818578#2" weight="1.0"/>
    <tazSink id="-4818578#2" weight="1.0"/>
    <tazSource id="25601866#3" weight="1.0"/>
    <tazSink id="25601866#3" weight="1.0"/>
    <tazSource id="-25601866#3" weight="1.0"/>
    <tazSink id="-25601866#3" weight="1.0"/>
    <tazSource id="-24252779#1" weight="1.0"/>
    <tazSink id="-24252779#1" weight="1.0"/>
    <tazSource id="24252779#1" weight="1.0"/>
    <tazSink id="24252779#1" weight="1.0"/>
    <tazSource id="25601824#2" weight="1.0"/>
    <tazSink id="25601824#2" weight="1.0"/>
    <tazSource id="-25601824#2" weight="1.0"/>
    <tazSink id="-25601824#2" weight="1.0"/>
    <tazSource id="1338997380#1" weight="1.0"/>
    <tazSink id="1338997380#1" weight="1.0"/>
    <tazSource id="-1338997380#1" weight="1.0"/>
    <tazSink id="-1338997380#1" weight="1.0"/>
    <tazSource id="4814371#21" weight="1.0"/>
    <tazSink id="4814371#21" weight="1.0"/>
    <tazSource id="-4814371#21" weight="1.0"/>
    <tazSink id="-4814371#21" weight="1.0"/>
    <tazSource id="202223186#24" weight="1.0"/>
    <tazSink id="202223186#24" weight="1.0"/>
    <tazSource id="-202223186#24" weight="1.0"/>
    <tazSink id="-202223186#24" weight="1.0"/>
    <tazSource id="-1530399743#5" weight="1.0"/>
    <tazSink id="-1530399743#5" weight="1.0"/>
    <tazSource id="1530399743#5" weight="1.0"/>
    <tazSink id="1530399743#5" weight="1.0"/>
    <tazSource id="4814377#6" weight="1.0"/>
    <tazSink id="4814377#6" weight="1.0"/>
    <tazSource id="-4814377#6" weight="1.0"/>
    <tazSink id="-4814377#6" weight="1.0"/>
    <tazSource id="472484093" weight="1.0"/>
    <tazSink id="472484093" weight="1.0"/>
    <tazSource id="1344817451#2" weight="1.0"/>
    <tazSink id="1344817451#2" weight="1.0"/>
    <tazSource id="-1344817451#2" weight="1.0"/>
    <tazSink id="-1344817451#2" weight="1.0"/>
    <tazSource id="32107592#1" weight="1.0"/>
    <tazSink id="32107592#1" weight="1.0"/>
    <tazSource id="-32107592#1" weight="1.0"/>
    <tazSink id="-32107592#1" weight="1.0"/>
    <tazSource id="-472484093" weight="1.0"/>
    <tazSink id="-472484093" weight="1.0"/>
    <tazSource id="-141106322#53" weight="1.0"/>
    <tazSink id="-141106322#53" weight="1.0"/>
  </taz>
  <taz id="ext_S">
    <tazSource id="-248878770#3" weight="1.0"/>
    <tazSink id="-248878770#3" weight="1.0"/>
    <tazSource id="-196602550#1" weight="1.0"/>
    <tazSink id="-196602550#1" weight="1.0"/>
    <tazSource id="196602550#1" weight="1.0"/>
    <tazSink id="196602550#1" weight="1.0"/>
    <tazSource id="248878770#3" weight="1.0"/>
    <tazSink id="248878770#3" weight="1.0"/>
    <tazSource id="-4868445#4" weight="1.0"/>
    <tazSink id="-4868445#4" weight="1.0"/>
    <tazSource id="-237300054#6" weight="1.0"/>
    <tazSink id="-237300054#6" weight="1.0"/>
    <tazSource id="237300054#6" weight="1.0"/>
    <tazSink id="237300054#6" weight="1.0"/>
    <tazSource id="4868445#4" weight="1.0"/>
    <tazSink id="4868445#4" weight="1.0"/>
    <tazSource id="460876846#0" weight="1.0"/>
    <tazSink id="460876846#0" weight="1.0"/>
    <tazSource id="196602588#0" weight="1.0"/>
    <tazSink id="196602588#0" weight="1.0"/>
    <tazSource id="237300055#12" weight="1.0"/>
    <tazSink id="237300055#12" weight="1.0"/>
    <tazSource id="-237300055#12" weight="1.0"/>
    <tazSink id="-237300055#12" weight="1.0"/>
    <tazSource id="-4830620#3" weight="1.0"/>
    <tazSink id="-4830620#3" weight="1.0"/>
    <tazSource id="4830620#3" weight="1.0"/>
    <tazSink id="4830620#3" weight="1.0"/>
    <tazSource id="1347832367" weight="1.0"/>
    <tazSink id="1347832367" weight="1.0"/>
    <tazSource id="4868431#10" weight="1.0"/>
    <tazSink id="4868431#10" weight="1.0"/>
    <tazSource id="-4868431#10" weight="1.0"/>
    <tazSink id="-4868431#10" weight="1.0"/>
    <tazSource id="149777637#0" weight="1.0"/>
    <tazSink id="149777637#0" weight="1.0"/>
    <tazSource id="-149777637#0" weight="1.0"/>
    <tazSink id="-149777637#0" weight="1.0"/>
    <tazSource id="-24377930#2" weight="1.0"/>
    <tazSink id="-24377930#2" weight="1.0"/>
    <tazSource id="24377930#2" weight="1.0"/>
    <tazSink id="24377930#2" weight="1.0"/>
    <tazSource id="402750660#1" weight="1.0"/>
    <tazSink id="402750660#1" weight="1.0"/>
    <tazSource id="-4609252#2" weight="1.0"/>
    <tazSink id="-4609252#2" weight="1.0"/>
    <tazSource id="4609252#2" weight="1.0"/>
    <tazSink id="4609252#2" weight="1.0"/>
    <tazSource id="196602581#1" weight="1.0"/>
    <tazSink id="196602581#1" weight="1.0"/>
  </taz>
  <taz id="ext_W">
    <tazSource id="558320190#0" weight="40000.0"/>
    <tazSink id="558320190#0" weight="40000.0"/>
    <tazSource id="23763383#4" weight="1.0"/>
    <tazSink id="23763383#4" weight="1.0"/>
    <tazSource id="23763294#3" weight="1.0"/>
    <tazSink id="23763294#3" weight="1.0"/>
    <tazSource id="-585324809#0" weight="1.0"/>
    <tazSink id="-585324809#0" weight="1.0"/>
    <tazSource id="585324809#0" weight="1.0"/>
    <tazSink id="585324809#0" weight="1.0"/>
    <tazSource id="-171149690#0" weight="1.0"/>
    <tazSink id="-171149690#0" weight="1.0"/>
    <tazSource id="171149690#0" weight="1.0"/>
    <tazSink id="171149690#0" weight="1.0"/>
    <tazSource id="4820663#0" weight="1.0"/>
    <tazSink id="4820663#0" weight="1.0"/>
    <tazSource id="-4820663#0" weight="1.0"/>
    <tazSink id="-4820663#0" weight="1.0"/>
    <tazSource id="4820662#1" weight="1.0"/>
    <tazSink id="4820662#1" weight="1.0"/>
    <tazSource id="-4820662#1" weight="1.0"/>
    <tazSink id="-4820662#1" weight="1.0"/>
    <tazSource id="467679282#1" weight="1.0"/>
    <tazSink id="467679282#1" weight="1.0"/>
    <tazSource id="-467679282#1" weight="1.0"/>
    <tazSink id="-467679282#1" weight="1.0"/>
    <tazSource id="23647270#2" weight="1.0"/>
    <tazSink id="23647270#2" weight="1.0"/>
    <tazSource id="-23647270#2" weight="1.0"/>
    <tazSink id="-23647270#2" weight="1.0"/>
    <tazSource id="4820573#0" weight="1.0"/>
    <tazSink id="4820573#0" weight="1.0"/>
    <tazSource id="-4820573#0" weight="1.0"/>
    <tazSink id="-4820573#0" weight="1.0"/>
    <tazSource id="204880351#1" weight="1.0"/>
    <tazSink id="204880351#1" weight="1.0"/>
    <tazSource id="32097773#4" weight="1.0"/>
    <tazSink id="32097773#4" weight="1.0"/>
    <tazSource id="462896921#4" weight="1.0"/>
    <tazSink id="462896921#4" weight="1.0"/>
    <tazSource id="23763294#0" weight="1.0"/>
    <tazSink id="23763294#0" weight="1.0"/>
    <tazSource id="23763213#1" weight="1.0"/>
    <tazSink id="23763213#1" weight="1.0"/>
    <tazSource id="1039236382" weight="1.0"/>
    <tazSink id="1039236382" weight="1.0"/>
    <tazSource id="-1347852066#5" weight="1.0"/>
    <tazSink id="-1347852066#5" weight="1.0"/>
    <tazSource id="1347852066#5" weight="1.0"/>
    <tazSink id="1347852066#5" weight="1.0"/>
  </taz>
</additional>
