<?xml version="1.0" encoding="UTF-8"?>
<additional>
  <taz id="taz_0_0">
    <tazSource id="1349096472#1" weight="36000"/>
    <tazSink id="1349096472#1" weight="36000"/>
    <tazSource id="32097429" weight="36000"/>
    <tazSink id="32097429" weight="36000"/>
    <tazSource id="248402400#1" weight="31000"/>
    <tazSink id="248402400#1" weight="31000"/>
    <tazSource id="166187515#2" weight="30000"/>
    <tazSink id="166187515#2" weight="30000"/>
    <tazSource id="166789709#3" weight="25000"/>
    <tazSink id="166789709#3" weight="25000"/>
    <tazSource id="-459593649#1" weight="24000"/>
    <tazSink id="-459593649#1" weight="24000"/>
    <tazSource id="203406169#2" weight="15000"/>
    <tazSink id="203406169#2" weight="15000"/>
    <tazSource id="130359884#1" weight="14000"/>
    <tazSink id="130359884#1" weight="14000"/>
    <tazSource id="511579311#10" weight="14000"/>
    <tazSink id="511579311#10" weight="14000"/>
    <tazSource id="600592567#8" weight="14000"/>
    <tazSink id="600592567#8" weight="14000"/>
    <tazSource id="1272736250#1" weight="11000"/>
    <tazSink id="1272736250#1" weight="11000"/>
    <tazSource id="166789708#1" weight="11000"/>
    <tazSink id="166789708#1" weight="11000"/>
    <tazSource id="491849870#2" weight="11000"/>
    <tazSink id="491849870#2" weight="11000"/>
    <tazSource id="-1056898481#3" weight="1"/>
    <tazSink id="-1056898481#3" weight="1"/>
    <tazSource id="-12100762#1" weight="1"/>
    <tazSink id="-12100762#1" weight="1"/>
  </taz>
  <taz id="taz_0_1">
    <tazSource id="357501306#1" weight="33000"/>
    <tazSink id="357501306#1" weight="33000"/>
    <tazSource id="209086947#8" weight="31000"/>
    <tazSink id="209086947#8" weight="31000"/>
    <tazSource id="203404552#1" weight="29000"/>
    <tazSink id="203404552#1" weight="29000"/>
    <tazSource id="209086947#3" weight="29000"/>
    <tazSink id="209086947#3" weight="29000"/>
    <tazSource id="1423613729#3" weight="25000"/>
    <tazSink id="1423613729#3" weight="25000"/>
    <tazSource id="1269812659#1" weight="15000"/>
    <tazSink id="1269812659#1" weight="15000"/>
    <tazSource id="1409499802#2" weight="15000"/>
    <tazSink id="1409499802#2" weight="15000"/>
    <tazSource id="141116818#4" weight="15000"/>
    <tazSink id="141116818#4" weight="15000"/>
    <tazSource id="807915577#0" weight="15000"/>
    <tazSink id="807915577#0" weight="15000"/>
    <tazSource id="807915577#7" weight="15000"/>
    <tazSink id="807915577#7" weight="15000"/>
    <tazSource id="233756424#3" weight="14000"/>
    <tazSink id="233756424#3" weight="14000"/>
    <tazSource id="166789702#3" weight="12000"/>
    <tazSink id="166789702#3" weight="12000"/>
    <tazSource id="166789696#2" weight="11000"/>
    <tazSink id="166789696#2" weight="11000"/>
    <tazSource id="179489270#1" weight="11000"/>
    <tazSink id="179489270#1" weight="11000"/>
    <tazSource id="204201293#1" weight="11000"/>
    <tazSink id="204201293#1" weight="11000"/>
  </taz>
  <taz id="taz_0_2">
    <tazSource id="198248662#10" weight="25000"/>
    <tazSink id="198248662#10" weight="25000"/>
    <tazSource id="1185630532#4" weight="24000"/>
    <tazSink id="1185630532#4" weight="24000"/>
    <tazSource id="135678688#1" weight="23000"/>
    <tazSink id="135678688#1" weight="23000"/>
    <tazSource id="468730823#1" weight="23000"/>
    <tazSink id="468730823#1" weight="23000"/>
    <tazSource id="166789707#4" weight="21000"/>
    <tazSink id="166789707#4" weight="21000"/>
    <tazSource id="166789703#0" weight="20000"/>
    <tazSink id="166789703#0" weight="20000"/>
    <tazSource id="1463656916#8" weight="19000"/>
    <tazSink id="1463656916#8" weight="19000"/>
    <tazSource id="198464189#2" weight="19000"/>
    <tazSink id="198464189#2" weight="19000"/>
    <tazSource id="1271380733#0" weight="18000"/>
    <tazSink id="1271380733#0" weight="18000"/>
    <tazSource id="1463656916#0" weight="18000"/>
    <tazSink id="1463656916#0" weight="18000"/>
    <tazSource id="166789715#8" weight="16000"/>
    <tazSink id="166789715#8" weight="16000"/>
    <tazSource id="166789715#1" weight="15000"/>
    <tazSink id="166789715#1" weight="15000"/>
    <tazSource id="166789694#0" weight="14000"/>
    <tazSink id="166789694#0" weight="14000"/>
    <tazSource id="12100756#2" weight="13000"/>
    <tazSink id="12100756#2" weight="13000"/>
    <tazSource id="141116806#1" weight="13000"/>
    <tazSink id="141116806#1" weight="13000"/>
  </taz>
  <taz id="taz_0_3">
    <tazSource id="-1086800839" weight="1"/>
    <tazSink id="-1086800839" weight="1"/>
    <tazSource id="-1086800840#2" weight="1"/>
    <tazSink id="-1086800840#2" weight="1"/>
    <tazSource id="-1086800840#3" weight="1"/>
    <tazSink id="-1086800840#3" weight="1"/>
    <tazSource id="-1159687228#1" weight="1"/>
    <tazSink id="-1159687228#1" weight="1"/>
    <tazSource id="-1159687228#2" weight="1"/>
    <tazSink id="-1159687228#2" weight="1"/>
    <tazSource id="-11902190#0" weight="1"/>
    <tazSink id="-11902190#0" weight="1"/>
    <tazSource id="-1219514884#0" weight="1"/>
    <tazSink id="-1219514884#0" weight="1"/>
    <tazSource id="-1219514884#1" weight="1"/>
    <tazSink id="-1219514884#1" weight="1"/>
    <tazSource id="-1219514884#2" weight="1"/>
    <tazSink id="-1219514884#2" weight="1"/>
    <tazSource id="-1219514884#3" weight="1"/>
    <tazSink id="-1219514884#3" weight="1"/>
    <tazSource id="-1219514884#4" weight="1"/>
    <tazSink id="-1219514884#4" weight="1"/>
    <tazSource id="-1219514884#5" weight="1"/>
    <tazSink id="-1219514884#5" weight="1"/>
    <tazSource id="-1219514884#6" weight="1"/>
    <tazSink id="-1219514884#6" weight="1"/>
    <tazSource id="-1271369111#3" weight="1"/>
    <tazSink id="-1271369111#3" weight="1"/>
    <tazSource id="-1271369111#4" weight="1"/>
    <tazSink id="-1271369111#4" weight="1"/>
  </taz>
  <taz id="taz_1_0">
    <tazSource id="198107934" weight="46000"/>
    <tazSink id="198107934" weight="46000"/>
    <tazSource id="209086946#1" weight="20000"/>
    <tazSink id="209086946#1" weight="20000"/>
    <tazSource id="-12099393#0" weight="1"/>
    <tazSink id="-12099393#0" weight="1"/>
    <tazSource id="-12099393#1" weight="1"/>
    <tazSink id="-12099393#1" weight="1"/>
    <tazSource id="-12100751" weight="1"/>
    <tazSink id="-12100751" weight="1"/>
    <tazSource id="-12102996#0" weight="1"/>
    <tazSink id="-12102996#0" weight="1"/>
    <tazSource id="-12102996#1" weight="1"/>
    <tazSink id="-12102996#1" weight="1"/>
    <tazSource id="-12102996#2" weight="1"/>
    <tazSink id="-12102996#2" weight="1"/>
    <tazSource id="-12102996#3" weight="1"/>
    <tazSink id="-12102996#3" weight="1"/>
    <tazSource id="-12102998#0" weight="1"/>
    <tazSink id="-12102998#0" weight="1"/>
    <tazSource id="-12102998#1" weight="1"/>
    <tazSink id="-12102998#1" weight="1"/>
    <tazSource id="-12102998#2" weight="1"/>
    <tazSink id="-12102998#2" weight="1"/>
    <tazSource id="-12103005#0" weight="1"/>
    <tazSink id="-12103005#0" weight="1"/>
    <tazSource id="-12103005#1" weight="1"/>
    <tazSink id="-12103005#1" weight="1"/>
    <tazSource id="-1323282836" weight="1"/>
    <tazSink id="-1323282836" weight="1"/>
  </taz>
  <taz id="taz_1_1">
    <tazSource id="198464186#5" weight="25000"/>
    <tazSink id="198464186#5" weight="25000"/>
    <tazSource id="32000793#1" weight="20000"/>
    <tazSink id="32000793#1" weight="20000"/>
    <tazSource id="807915578#1" weight="20000"/>
    <tazSink id="807915578#1" weight="20000"/>
    <tazSource id="141106316#2" weight="19000"/>
    <tazSink id="141106316#2" weight="19000"/>
    <tazSource id="196565641" weight="19000"/>
    <tazSink id="196565641" weight="19000"/>
    <tazSource id="204156098#5" weight="19000"/>
    <tazSink id="204156098#5" weight="19000"/>
    <tazSource id="141116803#1" weight="18000"/>
    <tazSink id="141116803#1" weight="18000"/>
    <tazSource id="141116807#1" weight="18000"/>
    <tazSink id="141116807#1" weight="18000"/>
    <tazSource id="203177444#4" weight="18000"/>
    <tazSink id="203177444#4" weight="18000"/>
    <tazSource id="166790915#11" weight="16000"/>
    <tazSink id="166790915#11" weight="16000"/>
    <tazSource id="32000911" weight="15000"/>
    <tazSink id="32000911" weight="15000"/>
    <tazSource id="204072396#2" weight="14000"/>
    <tazSink id="204072396#2" weight="14000"/>
    <tazSource id="166789695#2" weight="11000"/>
    <tazSink id="166789695#2" weight="11000"/>
    <tazSource id="166789705#7" weight="11000"/>
    <tazSink id="166789705#7" weight="11000"/>
    <tazSource id="203404550#2" weight="11000"/>
    <tazSink id="203404550#2" weight="11000"/>
  </taz>
  <taz id="taz_1_2">
    <tazSource id="198464181#1" weight="40000"/>
    <tazSink id="198464181#1" weight="40000"/>
    <tazSource id="222970223#0" weight="38000"/>
    <tazSink id="222970223#0" weight="38000"/>
    <tazSource id="254287943#2" weight="30000"/>
    <tazSink id="254287943#2" weight="30000"/>
    <tazSource id="292896517" weight="30000"/>
    <tazSink id="292896517" weight="30000"/>
    <tazSource id="200879002#4" weight="26000"/>
    <tazSink id="200879002#4" weight="26000"/>
    <tazSource id="1271398199#1" weight="25000"/>
    <tazSink id="1271398199#1" weight="25000"/>
    <tazSource id="222970219#5" weight="24000"/>
    <tazSink id="222970219#5" weight="24000"/>
    <tazSource id="52510292#1" weight="24000"/>
    <tazSink id="52510292#1" weight="24000"/>
    <tazSource id="198248661#1" weight="21000"/>
    <tazSink id="198248661#1" weight="21000"/>
    <tazSource id="196588540#3" weight="20000"/>
    <tazSink id="196588540#3" weight="20000"/>
    <tazSource id="19165392#5" weight="19000"/>
    <tazSink id="19165392#5" weight="19000"/>
    <tazSource id="32548081#1" weight="19000"/>
    <tazSink id="32548081#1" weight="19000"/>
    <tazSource id="940306671#1" weight="19000"/>
    <tazSink id="940306671#1" weight="19000"/>
    <tazSource id="141116803#5" weight="18000"/>
    <tazSink id="141116803#5" weight="18000"/>
    <tazSource id="196550929#0" weight="18000"/>
    <tazSink id="196550929#0" weight="18000"/>
  </taz>
  <taz id="taz_1_3">
    <tazSource id="1325528763#1" weight="35000"/>
    <tazSink id="1325528763#1" weight="35000"/>
    <tazSource id="19165946" weight="29000"/>
    <tazSink id="19165946" weight="29000"/>
    <tazSource id="257636719-AddedOnRampEdge" weight="13000"/>
    <tazSink id="257636719-AddedOnRampEdge" weight="13000"/>
    <tazSource id="-1026477149#0" weight="1"/>
    <tazSink id="-1026477149#0" weight="1"/>
    <tazSource id="-1026477149#1" weight="1"/>
    <tazSink id="-1026477149#1" weight="1"/>
    <tazSource id="-1036423432" weight="1"/>
    <tazSink id="-1036423432" weight="1"/>
    <tazSource id="-1163237865#0" weight="1"/>
    <tazSink id="-1163237865#0" weight="1"/>
    <tazSource id="-1163237865#1" weight="1"/>
    <tazSink id="-1163237865#1" weight="1"/>
    <tazSource id="-1163237865#2" weight="1"/>
    <tazSink id="-1163237865#2" weight="1"/>
    <tazSource id="-1163237865#3" weight="1"/>
    <tazSink id="-1163237865#3" weight="1"/>
    <tazSource id="-1163237865#4" weight="1"/>
    <tazSink id="-1163237865#4" weight="1"/>
    <tazSource id="-1227216757#1" weight="1"/>
    <tazSink id="-1227216757#1" weight="1"/>
    <tazSource id="-1227232568#0" weight="1"/>
    <tazSink id="-1227232568#0" weight="1"/>
    <tazSource id="-1227232568#4" weight="1"/>
    <tazSink id="-1227232568#4" weight="1"/>
    <tazSource id="-1227232568#5" weight="1"/>
    <tazSink id="-1227232568#5" weight="1"/>
  </taz>
  <taz id="taz_2_0">
    <tazSource id="46788423#4" weight="43000"/>
    <tazSink id="46788423#4" weight="43000"/>
    <tazSource id="558320190#0" weight="40000"/>
    <tazSink id="558320190#0" weight="40000"/>
    <tazSource id="-12103005#3" weight="1"/>
    <tazSink id="-12103005#3" weight="1"/>
    <tazSource id="-12103005#4" weight="1"/>
    <tazSink id="-12103005#4" weight="1"/>
    <tazSource id="-12103005#6" weight="1"/>
    <tazSink id="-12103005#6" weight="1"/>
    <tazSource id="-1271382332#1" weight="1"/>
    <tazSink id="-1271382332#1" weight="1"/>
    <tazSource id="-1271382332#10" weight="1"/>
    <tazSink id="-1271382332#10" weight="1"/>
    <tazSource id="-1271382332#11" weight="1"/>
    <tazSink id="-1271382332#11" weight="1"/>
    <tazSource id="-1271382332#4" weight="1"/>
    <tazSink id="-1271382332#4" weight="1"/>
    <tazSource id="-1271382332#7" weight="1"/>
    <tazSink id="-1271382332#7" weight="1"/>
    <tazSource id="-1271382334#0" weight="1"/>
    <tazSink id="-1271382334#0" weight="1"/>
    <tazSource id="-1271382334#3" weight="1"/>
    <tazSink id="-1271382334#3" weight="1"/>
    <tazSource id="-1271382334#6" weight="1"/>
    <tazSink id="-1271382334#6" weight="1"/>
    <tazSource id="-1271382334#9" weight="1"/>
    <tazSink id="-1271382334#9" weight="1"/>
    <tazSource id="-1309555328#1" weight="1"/>
    <tazSink id="-1309555328#1" weight="1"/>
  </taz>
  <taz id="taz_2_1">
    <tazSource id="558320182#7" weight="50000"/>
    <tazSink id="558320182#7" weight="50000"/>
    <tazSource id="-1186353300" weight="1"/>
    <tazSink id="-1186353300" weight="1"/>
    <tazSource id="-1186353302#0" weight="1"/>
    <tazSink id="-1186353302#0" weight="1"/>
    <tazSource id="-1186353302#1" weight="1"/>
    <tazSink id="-1186353302#1" weight="1"/>
    <tazSource id="-1271382330#0" weight="1"/>
    <tazSink id="-1271382330#0" weight="1"/>
    <tazSource id="-1271382331#1" weight="1"/>
    <tazSink id="-1271382331#1" weight="1"/>
    <tazSource id="-1271382333#0" weight="1"/>
    <tazSink id="-1271382333#0" weight="1"/>
    <tazSource id="-1271382335#1" weight="1"/>
    <tazSink id="-1271382335#1" weight="1"/>
    <tazSource id="-1271382336#0" weight="1"/>
    <tazSink id="-1271382336#0" weight="1"/>
    <tazSource id="-1271382338#1" weight="1"/>
    <tazSink id="-1271382338#1" weight="1"/>
    <tazSource id="-1271382339" weight="1"/>
    <tazSink id="-1271382339" weight="1"/>
    <tazSource id="-1271382340" weight="1"/>
    <tazSink id="-1271382340" weight="1"/>
    <tazSource id="-1272965902#1" weight="1"/>
    <tazSink id="-1272965902#1" weight="1"/>
    <tazSource id="-1272965903" weight="1"/>
    <tazSink id="-1272965903" weight="1"/>
    <tazSource id="-1272965904" weight="1"/>
    <tazSink id="-1272965904" weight="1"/>
  </taz>
  <taz id="taz_2_2">
    <tazSource id="1427294341#7" weight="45000"/>
    <tazSink id="1427294341#7" weight="45000"/>
    <tazSource id="1427294341#0" weight="44000"/>
    <tazSink id="1427294341#0" weight="44000"/>
    <tazSource id="558320180#10" weight="42000"/>
    <tazSink id="558320180#10" weight="42000"/>
    <tazSource id="558320180#17" weight="42000"/>
    <tazSink id="558320180#17" weight="42000"/>
    <tazSource id="-1030521803#0" weight="1"/>
    <tazSink id="-1030521803#0" weight="1"/>
    <tazSource id="-1030521803#1" weight="1"/>
    <tazSink id="-1030521803#1" weight="1"/>
    <tazSource id="-1030521803#5" weight="1"/>
    <tazSink id="-1030521803#5" weight="1"/>
    <tazSource id="-11592641#10" weight="1"/>
    <tazSink id="-11592641#10" weight="1"/>
    <tazSource id="-11592641#4" weight="1"/>
    <tazSink id="-11592641#4" weight="1"/>
    <tazSource id="-11592641#5" weight="1"/>
    <tazSink id="-11592641#5" weight="1"/>
    <tazSource id="-11592641#6" weight="1"/>
    <tazSink id="-11592641#6" weight="1"/>
    <tazSource id="-11592641#9" weight="1"/>
    <tazSink id="-11592641#9" weight="1"/>
    <tazSource id="-1187053180#0" weight="1"/>
    <tazSink id="-1187053180#0" weight="1"/>
    <tazSource id="-1187053180#3" weight="1"/>
    <tazSink id="-1187053180#3" weight="1"/>
    <tazSource id="-1187053180#4" weight="1"/>
    <tazSink id="-1187053180#4" weight="1"/>
  </taz>
  <taz id="taz_2_3">
    <tazSource id="32105663#9" weight="43000"/>
    <tazSink id="32105663#9" weight="43000"/>
    <tazSource id="-11592641#0" weight="1"/>
    <tazSink id="-11592641#0" weight="1"/>
    <tazSource id="-11592641#1" weight="1"/>
    <tazSink id="-11592641#1" weight="1"/>
    <tazSource id="-11592642#0" weight="1"/>
    <tazSink id="-11592642#0" weight="1"/>
    <tazSource id="-11592642#1" weight="1"/>
    <tazSink id="-11592642#1" weight="1"/>
    <tazSource id="-11592646#1" weight="1"/>
    <tazSink id="-11592646#1" weight="1"/>
    <tazSource id="-11592646#2" weight="1"/>
    <tazSink id="-11592646#2" weight="1"/>
    <tazSource id="-11592646#3" weight="1"/>
    <tazSink id="-11592646#3" weight="1"/>
    <tazSource id="-11592648#1" weight="1"/>
    <tazSink id="-11592648#1" weight="1"/>
    <tazSource id="-11592650#1" weight="1"/>
    <tazSink id="-11592650#1" weight="1"/>
    <tazSource id="-11592657#1" weight="1"/>
    <tazSink id="-11592657#1" weight="1"/>
    <tazSource id="-11592659#1" weight="1"/>
    <tazSink id="-11592659#1" weight="1"/>
    <tazSource id="-1338997391#1" weight="1"/>
    <tazSink id="-1338997391#1" weight="1"/>
    <tazSource id="-1338997391#4" weight="1"/>
    <tazSink id="-1338997391#4" weight="1"/>
    <tazSource id="-1338997391#7" weight="1"/>
    <tazSink id="-1338997391#7" weight="1"/>
  </taz>
</additional>
