<?xml version="1.0" encoding="UTF-8"?>
<configuration>
  <input>
    <net-file value="calgary_downtown.net.xml"/>
    <route-files value="output/calgary_aadt.rou.xml"/>
  </input>
  <time>
    <begin value="0"/>
    <end value="3600"/>
  </time>
  <processing>
    <time-to-teleport value="300"/>
  </processing>
</configuration>
