<?xml version="1.0" encoding="UTF-8"?>

<!-- generated on 2026-06-22 15:54:33.098586 by randomTrips.py UNKNOWN
<configuration>
    <net-file value="calgary.net.xml"/>
    <output-trip-file value="output/calgary.trips.xml"/>
    <route-file value="output/calgary.rou.xml"/>
    <length value="True"/>
    <end value="1800.0"/>
    <period value="5.0"/>
</configuration>
-->

<routes xmlns:xsi="http://www.w3.org/2001/XMLSchema-instance" xsi:noNamespaceSchemaLocation="http://sumo.dlr.de/xsd/routes_file.xsd">
    <trip id="0" depart="0.00" from="217341386" to="-11899743#2"/>
    <trip id="1" depart="5.00" from="-4717003#8" to="-32159583"/>
    <trip id="2" depart="10.00" from="32153544#0" to="252498892"/>
    <trip id="3" depart="15.00" from="4836097#0" to="-17619546#2"/>
    <trip id="4" depart="20.00" from="1203013729#1" to="-12228131"/>
    <trip id="5" depart="25.00" from="-32106299#0" to="16680110#2"/>
    <trip id="6" depart="30.00" from="-1203013724" to="-273343231#5"/>
    <trip id="7" depart="35.00" from="23335233#0" to="18862212#5"/>
    <trip id="8" depart="40.00" from="-32152892" to="198248673#2"/>
    <trip id="9" depart="45.00" from="459745470#0-AddedOffRampEdge" to="-1024760671#1"/>
    <trip id="10" depart="50.00" from="459166257#0" to="27294582#0"/>
    <trip id="11" depart="55.00" from="-51219627#15" to="-203394473#1"/>
    <trip id="12" depart="60.00" from="685037312" to="-49667611#7"/>
    <trip id="13" depart="65.00" from="-18017281#3" to="-18730396#1"/>
    <trip id="14" depart="70.00" from="473733774#1" to="201016131#0"/>
    <trip id="15" depart="75.00" from="459315169" to="32102766#1"/>
    <trip id="16" depart="80.00" from="182804513" to="777839261"/>
    <trip id="17" depart="85.00" from="-9608496#0" to="19252941#13"/>
    <trip id="18" depart="90.00" from="467694340" to="203396139#1"/>
    <trip id="19" depart="95.00" from="4802310#0" to="196604275#6"/>
    <trip id="20" depart="100.00" from="280341850#1" to="-1340900374#3"/>
    <trip id="21" depart="105.00" from="-32168817" to="-479065892#1"/>
    <trip id="22" depart="110.00" from="-172445702#2" to="-32191639#5"/>
    <trip id="23" depart="115.00" from="-18755152#2" to="-4717083#9"/>
    <trip id="24" depart="120.00" from="207666800" to="-759768925#0"/>
    <trip id="25" depart="125.00" from="-802565468#0" to="-32095975"/>
    <trip id="26" depart="130.00" from="-4609179#26" to="551165217"/>
    <trip id="27" depart="135.00" from="23271705#2" to="202582297#1"/>
    <trip id="28" depart="140.00" from="-23593290#3" to="32102257#1"/>
    <trip id="29" depart="145.00" from="-23391318#2" to="-980643610#1"/>
    <trip id="30" depart="150.00" from="936492908#1" to="226197213#0"/>
    <trip id="31" depart="155.00" from="19256684#5" to="256404371#1"/>
    <trip id="32" depart="160.00" from="4721743#1" to="37552912#0"/>
    <trip id="33" depart="165.00" from="-32171206" to="-1233330387#1"/>
    <trip id="34" depart="170.00" from="-483006169" to="-463689635"/>
    <trip id="35" depart="175.00" from="-32097961#6" to="587316588#1"/>
    <trip id="36" depart="180.00" from="4822220#2" to="-4826951#3"/>
    <trip id="37" depart="185.00" from="23393039#0" to="10412554"/>
    <trip id="38" depart="190.00" from="503299215#2" to="1320350948#0"/>
    <trip id="39" depart="195.00" from="-458649808#0" to="-340331033#2"/>
    <trip id="40" depart="200.00" from="19343347#1" to="-4581541#0"/>
    <trip id="41" depart="205.00" from="19715120#5" to="48571325#2"/>
    <trip id="42" depart="210.00" from="10471704#3" to="-32106935#9"/>
    <trip id="43" depart="215.00" from="987814357#1" to="16704502#0"/>
    <trip id="44" depart="220.00" from="-17745143#2" to="-1343601273#2"/>
    <trip id="45" depart="225.00" from="-19247627" to="204200121#4"/>
    <trip id="46" depart="230.00" from="4450422#2" to="1211492516"/>
    <trip id="47" depart="235.00" from="-158812991#4" to="-999841354#6"/>
    <trip id="48" depart="240.00" from="978610835#2" to="17746596#5"/>
    <trip id="49" depart="245.00" from="772361434#2" to="4802038#9"/>
    <trip id="50" depart="250.00" from="-10471704#2" to="32095292#3"/>
    <trip id="51" depart="255.00" from="253478015#1" to="18742637"/>
    <trip id="52" depart="260.00" from="-4609177#2" to="23212152#6"/>
    <trip id="53" depart="265.00" from="-19252935#1" to="1249811107"/>
    <trip id="54" depart="270.00" from="1289846298" to="643365928#0"/>
    <trip id="55" depart="275.00" from="4820625#12" to="-4581541#0"/>
    <trip id="56" depart="280.00" from="159605857#5" to="-239267993#22"/>
    <trip id="57" depart="285.00" from="49667448#0" to="4814346#3"/>
    <trip id="58" depart="290.00" from="-4807110#5" to="223786482"/>
    <trip id="59" depart="295.00" from="201017571#5" to="-202440213#13"/>
    <trip id="60" depart="300.00" from="32892205#4" to="18755096#8"/>
    <trip id="61" depart="305.00" from="377512190#0" to="179489270#1"/>
    <trip id="62" depart="310.00" from="-1005267817#0" to="-4841694#4"/>
    <trip id="63" depart="315.00" from="-1120886614#1" to="541827921"/>
    <trip id="64" depart="320.00" from="4822733#1" to="471483101#1"/>
    <trip id="65" depart="325.00" from="-4822231#1" to="-1455572910#3"/>
    <trip id="66" depart="330.00" from="4822701#3" to="6050613"/>
    <trip id="67" depart="335.00" from="-175330040" to="1424222932"/>
    <trip id="68" depart="340.00" from="-16482528#0" to="32222181#2"/>
    <trip id="69" depart="345.00" from="337493888" to="-19442393#1"/>
    <trip id="70" depart="350.00" from="1352288692#0" to="19247594#1"/>
    <trip id="71" depart="355.00" from="-458885127" to="481568645"/>
    <trip id="72" depart="360.00" from="12104510#4" to="-32098518"/>
    <trip id="73" depart="365.00" from="18742662#0" to="32102958"/>
    <trip id="74" depart="370.00" from="-295460469#1" to="-4826725#6"/>
    <trip id="75" depart="375.00" from="9744944#4" to="23392962#1"/>
    <trip id="76" depart="380.00" from="1256433199" to="172504686#1"/>
    <trip id="77" depart="385.00" from="-19424624#2" to="-32165087#3"/>
    <trip id="78" depart="390.00" from="-505225816#1" to="198245771#1"/>
    <trip id="79" depart="395.00" from="-32174629#1" to="-32153218#12"/>
    <trip id="80" depart="400.00" from="-16680270#1" to="207362580#0"/>
    <trip id="81" depart="405.00" from="-32171206" to="488868174#2"/>
    <trip id="82" depart="410.00" from="479479886#2" to="-16680181#3"/>
    <trip id="83" depart="415.00" from="-32218855#1" to="24377979#5"/>
    <trip id="84" depart="420.00" from="-32100905#5" to="-196468508#3"/>
    <trip id="85" depart="425.00" from="551162021" to="19471593#20"/>
    <trip id="86" depart="430.00" from="1343860754#4" to="411199465#2"/>
    <trip id="87" depart="435.00" from="459373898#2" to="-25601866#1"/>
    <trip id="88" depart="440.00" from="-18730447#1" to="1236760883#0"/>
    <trip id="89" depart="445.00" from="1212400131" to="1339315289"/>
    <trip id="90" depart="450.00" from="32101306#0" to="250264324#2"/>
    <trip id="91" depart="455.00" from="854779953" to="-18742650#2"/>
    <trip id="92" depart="460.00" from="10543442#1" to="-511625435#1"/>
    <trip id="93" depart="465.00" from="4802309#1" to="-363695822#10"/>
    <trip id="94" depart="470.00" from="-257484845#0" to="1287657000-AddedOffRampEdge"/>
    <trip id="95" depart="475.00" from="1203013726" to="-4717084#10"/>
    <trip id="96" depart="480.00" from="-363695777#1" to="530725713#10"/>
    <trip id="97" depart="485.00" from="1271397096" to="4802258"/>
    <trip id="98" depart="490.00" from="18959948#2" to="-1357912497#3"/>
    <trip id="99" depart="495.00" from="993524581" to="4717065#1"/>
    <trip id="100" depart="500.00" from="760475650#2" to="535708780"/>
    <trip id="101" depart="505.00" from="474365793#0" to="-233753889#6"/>
    <trip id="102" depart="510.00" from="1409449477#5" to="-32100468"/>
    <trip id="103" depart="515.00" from="10473016#1" to="-1473849894#3"/>
    <trip id="104" depart="520.00" from="-968702085#3" to="854796942#9"/>
    <trip id="105" depart="525.00" from="-459140484#4" to="404946191"/>
    <trip id="106" depart="530.00" from="1290172745" to="1212421981"/>
    <trip id="107" depart="535.00" from="685037316" to="9744990#2"/>
    <trip id="108" depart="540.00" from="19253705#1" to="32093446#0"/>
    <trip id="109" depart="545.00" from="-204068281#1" to="-4806920#5"/>
    <trip id="110" depart="550.00" from="759768948#7" to="19712624"/>
    <trip id="111" depart="555.00" from="18755129#6" to="32182239#5"/>
    <trip id="112" depart="560.00" from="-1431073206" to="19795580#0"/>
    <trip id="113" depart="565.00" from="16357794#2" to="476932273"/>
    <trip id="114" depart="570.00" from="-209086610#0" to="702544737#0"/>
    <trip id="115" depart="575.00" from="-172453717#0" to="-25215053#0"/>
    <trip id="116" depart="580.00" from="198250124#2" to="251399737#1"/>
    <trip id="117" depart="585.00" from="-32191878" to="-19350000#3"/>
    <trip id="118" depart="590.00" from="4835215#10" to="-337761146#0"/>
    <trip id="119" depart="595.00" from="198249119" to="203538262#1"/>
    <trip id="120" depart="600.00" from="11881174#1" to="19795539#0"/>
    <trip id="121" depart="605.00" from="173271646#6" to="551160209"/>
    <trip id="122" depart="610.00" from="-316975730" to="319497931#10"/>
    <trip id="123" depart="615.00" from="-32218941#6" to="10413304#7"/>
    <trip id="124" depart="620.00" from="243018313#2" to="-4814239#0"/>
    <trip id="125" depart="625.00" from="-4830594#4" to="32193191#5"/>
    <trip id="126" depart="630.00" from="-16680463#0" to="1319413989"/>
    <trip id="127" depart="635.00" from="9897898#0" to="978610835#1"/>
    <trip id="128" depart="640.00" from="-16704407#4" to="-32100131#0"/>
    <trip id="129" depart="645.00" from="-459140484#2" to="54928255#4"/>
    <trip id="130" depart="650.00" from="48253575#1" to="4822844#9"/>
    <trip id="131" depart="655.00" from="-784349780#11" to="-20399371"/>
    <trip id="132" depart="660.00" from="4716993#9" to="283873082#4"/>
    <trip id="133" depart="665.00" from="202015083#3-AddedOffRampEdge" to="880422035#1"/>
    <trip id="134" depart="670.00" from="23391902#0" to="-1040330435#4"/>
    <trip id="135" depart="675.00" from="461166939#0" to="-4814186#3"/>
    <trip id="136" depart="680.00" from="23593293#7" to="554865115#2"/>
    <trip id="137" depart="685.00" from="-19773682#19" to="-19256775#0"/>
    <trip id="138" depart="690.00" from="-18959921#0" to="19256639#11"/>
    <trip id="139" depart="695.00" from="-4695914#0" to="201505768#18"/>
    <trip id="140" depart="700.00" from="316995252#3" to="-306927334#0"/>
    <trip id="141" depart="705.00" from="206004938#1" to="-45895293#8"/>
    <trip id="142" depart="710.00" from="1425956201" to="488694059#1"/>
    <trip id="143" depart="715.00" from="4721813#6" to="-178425644#1"/>
    <trip id="144" depart="720.00" from="1212400131" to="-4717068#5"/>
    <trip id="145" depart="725.00" from="-1006468921" to="360737691#0"/>
    <trip id="146" depart="730.00" from="209094262#1" to="-454699478#1"/>
    <trip id="147" depart="735.00" from="32165708#2" to="19252904#0"/>
    <trip id="148" depart="740.00" from="12226539#1" to="-10413309#2"/>
    <trip id="149" depart="745.00" from="-16705368" to="4826861#2"/>
    <trip id="150" depart="750.00" from="4868599#2" to="18953093"/>
    <trip id="151" depart="755.00" from="4717058#0" to="19791892#3"/>
    <trip id="152" depart="760.00" from="-201505768#16" to="-19442262#13"/>
    <trip id="153" depart="765.00" from="-4822614#4" to="4860541#2"/>
    <trip id="154" depart="770.00" from="452966658#4" to="4802035"/>
    <trip id="155" depart="775.00" from="485746758#0" to="-32096705"/>
    <trip id="156" depart="780.00" from="-363695724#7" to="-18763932#0"/>
    <trip id="157" depart="785.00" from="380189711#7" to="482768382#6"/>
    <trip id="158" depart="790.00" from="1082611417" to="203631032"/>
    <trip id="159" depart="795.00" from="-20399351#5" to="542108442#1"/>
    <trip id="160" depart="800.00" from="4803781#6" to="803099797#0"/>
    <trip id="161" depart="805.00" from="459882377#1" to="4826744#7"/>
    <trip id="162" depart="810.00" from="-11881646#2" to="32156157#1"/>
    <trip id="163" depart="815.00" from="-4869072#6" to="543778193#0"/>
    <trip id="164" depart="820.00" from="4581541#0" to="4803753#6"/>
    <trip id="165" depart="825.00" from="459839114" to="-4618393#8"/>
    <trip id="166" depart="830.00" from="430054024#0" to="-18959910#6"/>
    <trip id="167" depart="835.00" from="4814433#0" to="4794524#33"/>
    <trip id="168" depart="840.00" from="-32156410" to="461139258#0"/>
    <trip id="169" depart="845.00" from="132029344#0" to="-4818627#1"/>
    <trip id="170" depart="850.00" from="44947581" to="-32173298"/>
    <trip id="171" depart="855.00" from="-11592641#6" to="-25887351#0"/>
    <trip id="172" depart="860.00" from="-4860553#4" to="4803777#6"/>
    <trip id="173" depart="865.00" from="748450401" to="-4717087#0"/>
    <trip id="174" depart="870.00" from="221507126#0" to="10472974#4"/>
    <trip id="175" depart="875.00" from="851929947" to="18730487#0"/>
    <trip id="176" depart="880.00" from="5603653" to="-19256769#2"/>
    <trip id="177" depart="885.00" from="767753425" to="-239024525#8"/>
    <trip id="178" depart="890.00" from="712336889#5" to="-4609171#1"/>
    <trip id="179" depart="895.00" from="-18963699#1" to="1249807010#6"/>
    <trip id="180" depart="900.00" from="32100730#2" to="-4826849#1"/>
    <trip id="181" depart="905.00" from="200830941#17" to="16705424#4"/>
    <trip id="182" depart="910.00" from="1005841072#2" to="196602557#1"/>
    <trip id="183" depart="915.00" from="-380425173#2" to="290075930#0"/>
    <trip id="184" depart="920.00" from="-1006451940#0" to="533469304#1"/>
    <trip id="185" depart="925.00" from="18730509#0" to="32094259#2"/>
    <trip id="186" depart="930.00" from="32167587" to="24837234#24"/>
    <trip id="187" depart="935.00" from="-727222517#1" to="-166417991#2"/>
    <trip id="188" depart="940.00" from="23593358#1" to="-4860835#1"/>
    <trip id="189" depart="945.00" from="-4826839#12" to="474365797#0"/>
    <trip id="190" depart="950.00" from="32092731#2" to="-4814269#1"/>
    <trip id="191" depart="955.00" from="-4822716#6" to="1120251160#1"/>
    <trip id="192" depart="960.00" from="10542739#2" to="-4803775#1"/>
    <trip id="193" depart="965.00" from="-194684394#4" to="1203013713#1"/>
    <trip id="194" depart="970.00" from="567559699#0" to="25315576#5"/>
    <trip id="195" depart="975.00" from="486649555#1" to="203205756#0"/>
    <trip id="196" depart="980.00" from="-4814278#11" to="18962456#1"/>
    <trip id="197" depart="985.00" from="-1005259809#0" to="-476867594#1"/>
    <trip id="198" depart="990.00" from="1227203028" to="19715111#2"/>
    <trip id="199" depart="995.00" from="23392996" to="1338768584#1"/>
    <trip id="200" depart="1000.00" from="1270731264" to="-32100407#2"/>
    <trip id="201" depart="1005.00" from="1347789583#1" to="48609348#2"/>
    <trip id="202" depart="1010.00" from="452808849#4" to="-23393052#0"/>
    <trip id="203" depart="1015.00" from="-173993293#1" to="172425550#2"/>
    <trip id="204" depart="1020.00" from="204287856#1" to="-492639949#1"/>
    <trip id="205" depart="1025.00" from="4614612#3" to="32191041"/>
    <trip id="206" depart="1030.00" from="24385655#1" to="-32164808"/>
    <trip id="207" depart="1035.00" from="-283540466#1" to="-118775744#4"/>
    <trip id="208" depart="1040.00" from="-32890382#1" to="1356947726#1"/>
    <trip id="209" depart="1045.00" from="476091514#0" to="-16680451#1"/>
    <trip id="210" depart="1050.00" from="1124898827#4" to="205998673#1"/>
    <trip id="211" depart="1055.00" from="-264407552#0" to="27030491#0"/>
    <trip id="212" depart="1060.00" from="1493774299#7" to="-33105719#1"/>
    <trip id="213" depart="1065.00" from="23393052#4" to="-1014270535"/>
    <trip id="214" depart="1070.00" from="32193768" to="353135591#1"/>
    <trip id="215" depart="1075.00" from="-18959877#0" to="12221219#0"/>
    <trip id="216" depart="1080.00" from="-239267993#5" to="685130084"/>
    <trip id="217" depart="1085.00" from="172449242#3" to="-1357703904#1"/>
    <trip id="218" depart="1090.00" from="-357298786#1" to="474584633#1"/>
    <trip id="219" depart="1095.00" from="1300643980#0" to="457932568"/>
    <trip id="220" depart="1100.00" from="238865544#1" to="896622687#0"/>
    <trip id="221" depart="1105.00" from="198250149#1" to="607490407"/>
    <trip id="222" depart="1110.00" from="4836044#3" to="203183834#2"/>
    <trip id="223" depart="1115.00" from="32092376#2" to="166789693#11"/>
    <trip id="224" depart="1120.00" from="468752425" to="18960036#2"/>
    <trip id="225" depart="1125.00" from="484641335#0" to="32169360#1"/>
    <trip id="226" depart="1130.00" from="1349095476#1" to="-44416050#0"/>
    <trip id="227" depart="1135.00" from="-337708774#3" to="222193951#0"/>
    <trip id="228" depart="1140.00" from="337490754#0" to="173939468#1"/>
    <trip id="229" depart="1145.00" from="203833204#9" to="-4717058#0"/>
    <trip id="230" depart="1150.00" from="-16706403" to="-473529780"/>
    <trip id="231" depart="1155.00" from="-4681368#4" to="-4835139#1"/>
    <trip id="232" depart="1160.00" from="18744564#3" to="-19791903#2"/>
    <trip id="233" depart="1165.00" from="-32179727#2" to="263514292"/>
    <trip id="234" depart="1170.00" from="283873082#4" to="-159605825#1"/>
    <trip id="235" depart="1175.00" from="1095437602" to="18833744#0"/>
    <trip id="236" depart="1180.00" from="1130545975#0" to="-32092784#0"/>
    <trip id="237" depart="1185.00" from="11899740#0" to="487537860#3"/>
    <trip id="238" depart="1190.00" from="19715067#1" to="267417582#0"/>
    <trip id="239" depart="1195.00" from="479245984#1" to="337111920"/>
    <trip id="240" depart="1200.00" from="-978610835#1" to="-10213268#4"/>
    <trip id="241" depart="1205.00" from="-597100978" to="32218223#6"/>
    <trip id="242" depart="1210.00" from="477431097" to="63565446"/>
    <trip id="243" depart="1215.00" from="11880481" to="32181054#4"/>
    <trip id="244" depart="1220.00" from="18833876" to="200881706#3"/>
    <trip id="245" depart="1225.00" from="-32153180#2" to="-32107073#1"/>
    <trip id="246" depart="1230.00" from="124875772#0" to="-12225335#5"/>
    <trip id="247" depart="1235.00" from="-49320688#1" to="253664715"/>
    <trip id="248" depart="1240.00" from="10553652#4" to="-23224148#1"/>
    <trip id="249" depart="1245.00" from="1338997396#1" to="-19442271#1"/>
    <trip id="250" depart="1250.00" from="203302574#0" to="-12104432#2"/>
    <trip id="251" depart="1255.00" from="103942381#0" to="19436840#1"/>
    <trip id="252" depart="1260.00" from="-12104432#1" to="23224162#2"/>
    <trip id="253" depart="1265.00" from="-19791913#11" to="1334255564#1"/>
    <trip id="254" depart="1270.00" from="-1357912493" to="-978610835#1"/>
    <trip id="255" depart="1275.00" from="-32098898#2" to="-48555337#15"/>
    <trip id="256" depart="1280.00" from="32548512#7" to="-978610835#1"/>
    <trip id="257" depart="1285.00" from="32218095#1" to="4716881#1"/>
    <trip id="258" depart="1290.00" from="-377506061#1" to="-172506885#7"/>
    <trip id="259" depart="1295.00" from="-1120886608#4" to="18755097#6"/>
    <trip id="260" depart="1300.00" from="999841363#2" to="-597100974#0"/>
    <trip id="261" depart="1305.00" from="23349198#1" to="382399540#2"/>
    <trip id="262" depart="1310.00" from="23366260#1" to="32218645"/>
    <trip id="263" depart="1315.00" from="607405284#13" to="-27877391#4"/>
    <trip id="264" depart="1320.00" from="-1123814486" to="-202223192#2"/>
    <trip id="265" depart="1325.00" from="-19446300#3" to="247467439"/>
    <trip id="266" depart="1330.00" from="19416082#1" to="-32105458#1"/>
    <trip id="267" depart="1335.00" from="270473881#1" to="337690409#11"/>
    <trip id="268" depart="1340.00" from="-23394554#15" to="202223175#6"/>
    <trip id="269" depart="1345.00" from="32184609#1" to="-19256666#1"/>
    <trip id="270" depart="1350.00" from="462038820#2" to="727964741#1"/>
    <trip id="271" depart="1355.00" from="-18963662#1" to="-1199272236#0"/>
    <trip id="272" depart="1360.00" from="-4826714#4" to="25315577#12"/>
    <trip id="273" depart="1365.00" from="685130097" to="10443907#6"/>
    <trip id="274" depart="1370.00" from="300683224#1" to="-16705402"/>
    <trip id="275" depart="1375.00" from="25735793#1" to="204157478#1"/>
    <trip id="276" depart="1380.00" from="-18763912#0" to="363695762#2"/>
    <trip id="277" depart="1385.00" from="47638919#2" to="200828262#10"/>
    <trip id="278" depart="1390.00" from="-19424625#11" to="854410384#0"/>
    <trip id="279" depart="1395.00" from="396222137#5" to="-550971357#0"/>
    <trip id="280" depart="1400.00" from="122402382#0" to="-83118028#6"/>
    <trip id="281" depart="1405.00" from="16480889" to="-526847414#4"/>
    <trip id="282" depart="1410.00" from="475853526" to="4628805#0"/>
    <trip id="283" depart="1415.00" from="-18951906#1" to="702544737#0"/>
    <trip id="284" depart="1420.00" from="207365036#2-AddedOffRampEdge" to="46736622#1"/>
    <trip id="285" depart="1425.00" from="285333879#0" to="1252128685#1"/>
    <trip id="286" depart="1430.00" from="32106308#1" to="736722986#7"/>
    <trip id="287" depart="1435.00" from="-464727675#3" to="459535488#0"/>
    <trip id="288" depart="1440.00" from="18730471#8" to="1409449477#11"/>
    <trip id="289" depart="1445.00" from="124794926#3" to="32104292"/>
    <trip id="290" depart="1450.00" from="-4628805#0" to="476890395#0"/>
    <trip id="291" depart="1455.00" from="4688214#2" to="-17557369#4"/>
    <trip id="292" depart="1460.00" from="4826727#2" to="-32896745#5"/>
    <trip id="293" depart="1465.00" from="1337245932" to="202903612#6"/>
    <trip id="294" depart="1470.00" from="-968702085#3" to="-12221245"/>
    <trip id="295" depart="1475.00" from="476867589" to="-24837250#0"/>
    <trip id="296" depart="1480.00" from="-32099750#1" to="455576120#14"/>
    <trip id="297" depart="1485.00" from="-51219627#15" to="4826659#1"/>
    <trip id="298" depart="1490.00" from="27294984#9" to="-4717068#0"/>
    <trip id="299" depart="1495.00" from="-10413333#1" to="60610258#1"/>
    <trip id="300" depart="1500.00" from="-174936210#2" to="32094702#4"/>
    <trip id="301" depart="1505.00" from="1425971162" to="32220435#1"/>
    <trip id="302" depart="1510.00" from="25735793#1" to="23349692#1"/>
    <trip id="303" depart="1515.00" from="1461503742#2" to="445492924#0"/>
    <trip id="304" depart="1520.00" from="-180342336#9" to="-32156031#1"/>
    <trip id="305" depart="1525.00" from="257722803#2" to="-4820606#12"/>
    <trip id="306" depart="1530.00" from="196604268" to="1349095476#1"/>
    <trip id="307" depart="1535.00" from="17745225#3" to="12225302#13"/>
    <trip id="308" depart="1540.00" from="32178489" to="-48665399#4"/>
    <trip id="309" depart="1545.00" from="277448678#1" to="-4684578#25"/>
    <trip id="310" depart="1550.00" from="-377370123#0" to="-19416104#1"/>
    <trip id="311" depart="1555.00" from="-26103614#4" to="-19349974#3"/>
    <trip id="312" depart="1560.00" from="182037969#4" to="32868525#2"/>
    <trip id="313" depart="1565.00" from="-253477999#2" to="-32103313#2"/>
    <trip id="314" depart="1570.00" from="1392423373#3" to="32098710#1"/>
    <trip id="315" depart="1575.00" from="809323422#2" to="17643719#0"/>
    <trip id="316" depart="1580.00" from="-4721746#3" to="-18755063#2"/>
    <trip id="317" depart="1585.00" from="-263438138#1" to="-32173089#0"/>
    <trip id="318" depart="1590.00" from="-24837252#0" to="-10542714#11"/>
    <trip id="319" depart="1595.00" from="181379024#1" to="-4717030#10"/>
    <trip id="320" depart="1600.00" from="782420468#3" to="19256652#4"/>
    <trip id="321" depart="1605.00" from="26465513#3" to="-19442087#19"/>
    <trip id="322" depart="1610.00" from="4814003" to="1484463112"/>
    <trip id="323" depart="1615.00" from="4814469#5" to="196555669"/>
    <trip id="324" depart="1620.00" from="1340472033#1" to="1270614862#0"/>
    <trip id="325" depart="1625.00" from="-25315575#2" to="-1362046752"/>
    <trip id="326" depart="1630.00" from="573510208#9" to="1363425604"/>
    <trip id="327" depart="1635.00" from="462784728#2" to="10542709#0"/>
    <trip id="328" depart="1640.00" from="-16704504#0" to="205954912#9"/>
    <trip id="329" depart="1645.00" from="-13867662#2" to="-200814115#3"/>
    <trip id="330" depart="1650.00" from="19349956#4" to="-481798835#1"/>
    <trip id="331" depart="1655.00" from="969617963" to="-19343277#0"/>
    <trip id="332" depart="1660.00" from="33300339#6" to="202015061#15"/>
    <trip id="333" depart="1665.00" from="442591046#10" to="-32168742#1"/>
    <trip id="334" depart="1670.00" from="173165215#1" to="1289262237#2"/>
    <trip id="335" depart="1675.00" from="1271377200" to="4798525#1"/>
    <trip id="336" depart="1680.00" from="938253050" to="-4818629#1"/>
    <trip id="337" depart="1685.00" from="203255512#0" to="202588227#4"/>
    <trip id="338" depart="1690.00" from="32161600#7" to="60579664#2"/>
    <trip id="339" depart="1695.00" from="-32094646#0" to="-32097438#2"/>
    <trip id="340" depart="1700.00" from="23443128#14" to="-20399282#1"/>
    <trip id="341" depart="1705.00" from="-237873943#2" to="-16704583#0"/>
    <trip id="342" depart="1710.00" from="-1006452004#1" to="1289262237#2"/>
    <trip id="343" depart="1715.00" from="198248651" to="-4794685#0"/>
    <trip id="344" depart="1720.00" from="-32180818#4" to="287566959"/>
    <trip id="345" depart="1725.00" from="27877390#1" to="1290843497"/>
    <trip id="346" depart="1730.00" from="255501744#0" to="53175542"/>
    <trip id="347" depart="1735.00" from="434773800#3" to="204065069#1"/>
    <trip id="348" depart="1740.00" from="234811185#12" to="550006476#3"/>
    <trip id="349" depart="1745.00" from="12206795#1-AddedOffRampEdge" to="18862194#0"/>
    <trip id="350" depart="1750.00" from="23266876#0" to="491844499"/>
    <trip id="351" depart="1755.00" from="4651829#6" to="-16680285#1"/>
    <trip id="352" depart="1760.00" from="-23393018#6" to="-482239039#5"/>
    <trip id="353" depart="1765.00" from="32188057#5" to="19447865#5"/>
    <trip id="354" depart="1770.00" from="-476932271#0" to="-19424703#1"/>
    <trip id="355" depart="1775.00" from="256404401" to="276657523#1"/>
    <trip id="356" depart="1780.00" from="587607940#6" to="163317191#6"/>
    <trip id="357" depart="1785.00" from="1486719618#0" to="-172456541#3"/>
    <trip id="358" depart="1790.00" from="-130580585#1" to="124064549#1"/>
    <trip id="359" depart="1795.00" from="-4836935#29" to="-377370123#19"/>
</routes>
