<?xml version="1.0" encoding="UTF-8"?>

<!-- generated on 2026-06-22 16:44:15.413759 by randomTrips.py UNKNOWN
<configuration>
    <net-file value="calgary_downtown.net.xml"/>
    <output-trip-file value="output/calgary_downtown.trips.xml"/>
    <route-file value="output/calgary_downtown.rou.xml"/>
    <length value="True"/>
    <validate value="True"/>
    <period value="3.0"/>
</configuration>
-->

<!-- generated on 2026-06-22 16:44:08 by Eclipse SUMO duarouter Version 1.18.0
<configuration xmlns:xsi="http://www.w3.org/2001/XMLSchema-instance" xsi:noNamespaceSchemaLocation="http://sumo.dlr.de/xsd/duarouterConfiguration.xsd">

    <input>
        <net-file value="calgary_downtown.net.xml"/>
        <route-files value="output/calgary_downtown.trips.xml"/>
    </input>

    <output>
        <output-file value="output/calgary_downtown.trips.xml.tmp"/>
        <alternatives-output value="NUL"/>
        <write-trips value="true"/>
    </output>

    <time>
        <begin value="0"/>
        <end value="3600.0"/>
    </time>

    <report>
        <no-warnings value="true"/>
        <ignore-errors value="true"/>
        <no-step-log value="true"/>
    </report>

</configuration>
-->

<routes xmlns:xsi="http://www.w3.org/2001/XMLSchema-instance" xsi:noNamespaceSchemaLocation="http://sumo.dlr.de/xsd/routes_file.xsd">
    <trip id="0" depart="0.00" from="202223190#1" to="-1309555328#2"/>
    <trip id="1" depart="3.00" from="-4814395#0" to="-438869228#1"/>
    <trip id="3" depart="9.00" from="484761642" to="-159611909#0"/>
    <trip id="4" depart="12.00" from="-8036296#1" to="-1323929188"/>
    <trip id="5" depart="15.00" from="-32101654#13" to="1339758582#1"/>
    <trip id="6" depart="18.00" from="-1309562293#5" to="-27294995#6"/>
    <trip id="7" depart="21.00" from="203406186#10" to="159611909#2"/>
    <trip id="8" depart="24.00" from="-32105489#2" to="17557389#1"/>
    <trip id="9" depart="27.00" from="4814370#7" to="-12100762#1"/>
    <trip id="11" depart="33.00" from="-4830592#12" to="-203406186#13"/>
    <trip id="12" depart="36.00" from="544981509#1" to="-4826689#3"/>
    <trip id="13" depart="39.00" from="-163303432#12" to="-163317177#32"/>
    <trip id="14" depart="42.00" from="4818635#8" to="19166273#0"/>
    <trip id="15" depart="45.00" from="4814368#5" to="32096409#4"/>
    <trip id="16" depart="48.00" from="1475958087#3" to="600592567#11"/>
    <trip id="17" depart="51.00" from="-4869097#0" to="163303436#1"/>
    <trip id="18" depart="54.00" from="4814440#5" to="196615685#1"/>
    <trip id="19" depart="57.00" from="4820662#1" to="172425545#5"/>
    <trip id="20" depart="60.00" from="27294989#1" to="-1338997395#1"/>
    <trip id="21" depart="63.00" from="-443201187" to="-4814447#3"/>
    <trip id="22" depart="66.00" from="-149832928#1" to="-4614605#7"/>
    <trip id="23" depart="69.00" from="-166789698#7" to="-4814413#0"/>
    <trip id="24" depart="72.00" from="202223177#5" to="-4869069#0"/>
    <trip id="25" depart="75.00" from="-4869079#4" to="-32095714#3"/>
    <trip id="26" depart="78.00" from="-4814368#13" to="506294366#12"/>
    <trip id="27" depart="81.00" from="203406159#1" to="196555665"/>
    <trip id="28" depart="84.00" from="-233755780#1" to="32096409#1"/>
    <trip id="29" depart="87.00" from="-207476998#0" to="-4869102#2"/>
    <trip id="30" depart="90.00" from="804796737#3" to="202223193#1"/>
    <trip id="31" depart="93.00" from="163303444#3" to="252785553#10"/>
    <trip id="32" depart="96.00" from="4818627#7" to="467465586#1"/>
    <trip id="33" depart="99.00" from="-453656863#7" to="-133070225#9"/>
    <trip id="34" depart="102.00" from="-4818657#5" to="-4814371#5"/>
    <trip id="35" depart="105.00" from="-32094343#0" to="511579309#1"/>
    <trip id="36" depart="108.00" from="4822265#4" to="-4820565#8"/>
    <trip id="37" depart="111.00" from="204201287#1" to="-538893850#1"/>
    <trip id="38" depart="114.00" from="4869071#3" to="127734690#1"/>
    <trip id="39" depart="117.00" from="-4790316#2" to="-468645545#1"/>
    <trip id="40" depart="120.00" from="163317191#6" to="-4790316#3"/>
    <trip id="41" depart="123.00" from="172438253#1" to="4860495#0"/>
    <trip id="42" depart="126.00" from="-538893850#13" to="-32516948#3"/>
    <trip id="43" depart="129.00" from="957714782#0" to="1340472031#1"/>
    <trip id="44" depart="132.00" from="-163216718#2" to="-1338997396#1"/>
    <trip id="45" depart="135.00" from="-172405332#3" to="198464179#2"/>
    <trip id="46" depart="138.00" from="4712547" to="-804796739#5"/>
    <trip id="47" depart="141.00" from="-1340472027#3" to="-4869145#2"/>
    <trip id="48" depart="144.00" from="957714781" to="1461941756#0"/>
    <trip id="49" depart="147.00" from="582014891#0" to="4820664#1"/>
    <trip id="50" depart="150.00" from="-1269868035#3" to="31973500#0"/>
    <trip id="51" depart="153.00" from="24377744#0" to="149832927#1"/>
    <trip id="52" depart="156.00" from="-4814368#1" to="202227567#0"/>
    <trip id="53" depart="159.00" from="-172414838#14" to="11902164#2"/>
    <trip id="54" depart="162.00" from="1271382336#0" to="538899478#3"/>
    <trip id="55" depart="165.00" from="4822265#1" to="-4790317#6"/>
    <trip id="56" depart="168.00" from="1338997408#1" to="-248415514#6"/>
    <trip id="57" depart="171.00" from="4869054#4" to="4822259#4"/>
    <trip id="58" depart="174.00" from="-4818624#3" to="202223191#7"/>
    <trip id="59" depart="177.00" from="196471985#5" to="-202227581#1"/>
    <trip id="60" depart="180.00" from="4609149#2" to="149832928#7"/>
    <trip id="61" depart="183.00" from="46786654#4" to="1463656916#0"/>
    <trip id="62" depart="186.00" from="-1056925882#3" to="-4822234#9"/>
    <trip id="63" depart="189.00" from="-1272969045#0" to="4869140#1"/>
    <trip id="64" depart="192.00" from="4826659#4" to="4814447#6"/>
    <trip id="65" depart="195.00" from="-4818635#11" to="-1339758575#2"/>
    <trip id="66" depart="198.00" from="4826656#3" to="53163005#19"/>
    <trip id="67" depart="201.00" from="-159611909#0" to="1338997387#0"/>
    <trip id="68" depart="204.00" from="-1409509960#2" to="460895703#2"/>
    <trip id="69" depart="207.00" from="461162447#1" to="-182944827#2"/>
    <trip id="70" depart="210.00" from="132936844#8" to="163216718#3"/>
    <trip id="71" depart="213.00" from="-4790317#12" to="4822263#4"/>
    <trip id="72" depart="216.00" from="-804796734#3" to="-32097438#1"/>
    <trip id="73" depart="219.00" from="149213857#17" to="32096409#6"/>
    <trip id="74" depart="222.00" from="-27294995#3" to="-4818649#0"/>
    <trip id="75" depart="225.00" from="9333068" to="204157473#3"/>
    <trip id="76" depart="228.00" from="11902159#3" to="1409499802#1"/>
    <trip id="77" depart="231.00" from="-17557365#4" to="-44204569#4"/>
    <trip id="78" depart="234.00" from="-4826693#1" to="17557380#1"/>
    <trip id="79" depart="237.00" from="-459167664#1" to="-32548512#7"/>
    <trip id="80" depart="240.00" from="-141106322#41" to="202223174#0"/>
    <trip id="81" depart="243.00" from="-453656863#3" to="4868420#1"/>
    <trip id="82" depart="246.00" from="4820595#1" to="-141106322#14"/>
    <trip id="83" depart="249.00" from="-464727677#0" to="233755780#0"/>
    <trip id="84" depart="252.00" from="-32096713#6" to="-196472006#7"/>
    <trip id="85" depart="255.00" from="494164803#0" to="172360433#22"/>
    <trip id="86" depart="258.00" from="132371843#8" to="468697559#3"/>
    <trip id="87" depart="261.00" from="4814370#1" to="-27294984#6"/>
    <trip id="88" depart="264.00" from="-163317182#5" to="11592657#1"/>
    <trip id="89" depart="267.00" from="-804796735#1" to="1318245273"/>
    <trip id="90" depart="270.00" from="32094915#2" to="234840802#5"/>
    <trip id="91" depart="273.00" from="794448764#1" to="-163317193#2"/>
    <trip id="92" depart="276.00" from="-544981503#0" to="-4830592#15"/>
    <trip id="93" depart="279.00" from="4820662#1" to="-469446704#0"/>
    <trip id="94" depart="282.00" from="-27055302#1" to="1271382332#4"/>
    <trip id="95" depart="285.00" from="-8036296#1" to="-4814413#3"/>
    <trip id="96" depart="288.00" from="-469399741#4" to="4869097#0"/>
    <trip id="97" depart="291.00" from="1218664361#1" to="4820665#1"/>
    <trip id="98" depart="294.00" from="159611938#0" to="-1338997405#1"/>
    <trip id="99" depart="297.00" from="970997094" to="4818623#2"/>
    <trip id="100" depart="300.00" from="571124403" to="4869115#1"/>
    <trip id="101" depart="303.00" from="4818643#0" to="-222032504#4"/>
    <trip id="102" depart="306.00" from="1338997383#2" to="-32097877#1"/>
    <trip id="103" depart="309.00" from="-538899478#10" to="-1339758577#1"/>
    <trip id="104" depart="312.00" from="-4869099#1" to="802045475#0"/>
    <trip id="105" depart="315.00" from="-4790317#12" to="468684737"/>
    <trip id="106" depart="318.00" from="1272736250#1" to="-848656103#1"/>
    <trip id="107" depart="321.00" from="544981509#1" to="951858208#1"/>
    <trip id="108" depart="324.00" from="163303432#12" to="298687482#3"/>
    <trip id="109" depart="327.00" from="-203206911#1" to="-4818625#4"/>
    <trip id="110" depart="330.00" from="571124403" to="172425561#4"/>
    <trip id="111" depart="333.00" from="149832927#4" to="352365233#1"/>
    <trip id="112" depart="336.00" from="-1339758572#2" to="173947019#2"/>
    <trip id="113" depart="339.00" from="1339183076#2" to="4818647#6"/>
    <trip id="114" depart="342.00" from="-204071653#3" to="558320178#5"/>
    <trip id="115" depart="345.00" from="-149832928#10" to="-259670519#1"/>
    <trip id="116" depart="348.00" from="17619597#6" to="237300054#1"/>
    <trip id="117" depart="351.00" from="-4637525" to="-173947023#4"/>
    <trip id="118" depart="354.00" from="4841707#6" to="-4681371#8"/>
    <trip id="120" depart="360.00" from="-802045475#3" to="173158424#1"/>
    <trip id="121" depart="363.00" from="141101430#3" to="494164803#0"/>
    <trip id="122" depart="366.00" from="-290075930#0" to="298687479#7"/>
    <trip id="123" depart="369.00" from="-464891533#5" to="-538893850#10"/>
    <trip id="124" depart="372.00" from="233756423#9" to="-4818627#3"/>
    <trip id="125" depart="375.00" from="-4818658#5" to="4411656#13"/>
    <trip id="126" depart="378.00" from="-143323555#0" to="1275876462#1"/>
    <trip id="127" depart="381.00" from="961460493" to="957714781"/>
    <trip id="128" depart="384.00" from="-1441673919#0" to="-32097438#2"/>
    <trip id="129" depart="387.00" from="-4790317#12" to="494158909#2"/>
    <trip id="130" depart="390.00" from="4826684#3" to="4826693#1"/>
    <trip id="131" depart="393.00" from="-4869078#4" to="-204200131#1"/>
    <trip id="133" depart="399.00" from="196555655#0-AddedOnRampEdge" to="8036219#2"/>
    <trip id="134" depart="402.00" from="204200131#1" to="-1218664352#1"/>
    <trip id="135" depart="405.00" from="4814400#1" to="-4818627#2"/>
    <trip id="136" depart="408.00" from="217763216#3" to="5064953#1"/>
    <trip id="137" depart="411.00" from="-196602549#12" to="-172438253#3"/>
    <trip id="138" depart="414.00" from="-172360434#8" to="163303445#0"/>
    <trip id="139" depart="417.00" from="-4814384#6" to="196471980#3"/>
    <trip id="140" depart="420.00" from="298687482#1" to="-298687478#0"/>
    <trip id="141" depart="423.00" from="202223176#2" to="-480202317#1"/>
    <trip id="142" depart="426.00" from="1338997387#0" to="4868416#8"/>
    <trip id="143" depart="429.00" from="4818630#3" to="-163303431#2"/>
    <trip id="144" depart="432.00" from="-804796735#1" to="-4814407#1"/>
    <trip id="145" depart="435.00" from="-1163237865#0" to="464891533#4"/>
    <trip id="146" depart="438.00" from="202223181#9" to="-4790315#7"/>
    <trip id="147" depart="441.00" from="32105663#9" to="163303432#12"/>
    <trip id="148" depart="444.00" from="-880365080#1" to="-1265901843#0"/>
    <trip id="149" depart="447.00" from="-148781614#11" to="4830621#4"/>
    <trip id="150" depart="450.00" from="4860529#1" to="159611938#0"/>
    <trip id="151" depart="453.00" from="4818620#16" to="172449242#6"/>
    <trip id="152" depart="456.00" from="-202223186#15" to="-182759232#5"/>
    <trip id="153" depart="459.00" from="-4818638#1" to="4860498#6"/>
    <trip id="154" depart="462.00" from="473030857#0" to="4820664#1"/>
    <trip id="155" depart="465.00" from="4860486#2" to="-32096409#4"/>
    <trip id="156" depart="468.00" from="-469399739#1" to="-171247686#0"/>
    <trip id="157" depart="471.00" from="46788423#16" to="4830623#1"/>
    <trip id="158" depart="474.00" from="-55407813#3" to="196615704#3"/>
    <trip id="159" depart="477.00" from="-203206907" to="489583239"/>
    <trip id="160" depart="480.00" from="4822220#5" to="620286625"/>
    <trip id="161" depart="483.00" from="4814379#5" to="4830592#12"/>
    <trip id="162" depart="486.00" from="-1306728291#1" to="32100233"/>
    <trip id="164" depart="492.00" from="478837359#0" to="4822222"/>
    <trip id="165" depart="495.00" from="4814379#5" to="-4814370#7"/>
    <trip id="166" depart="498.00" from="469377091" to="-172397937#2"/>
    <trip id="167" depart="501.00" from="4822259#4" to="4820595#0"/>
    <trip id="168" depart="504.00" from="-32548512#3" to="4814400#7"/>
    <trip id="169" depart="507.00" from="1273270802#2" to="-4818636#4"/>
    <trip id="170" depart="510.00" from="472484084#1" to="-453656864#7"/>
    <trip id="171" depart="513.00" from="-129969998#5" to="-27294987#5"/>
    <trip id="172" depart="516.00" from="-4822248#16" to="4822222"/>
    <trip id="173" depart="519.00" from="559258215#1" to="-4814413#6"/>
    <trip id="174" depart="522.00" from="202223193#1" to="-544981503#3"/>
    <trip id="175" depart="525.00" from="704649931#2" to="149832896#1"/>
    <trip id="176" depart="528.00" from="506294367#13" to="-172438253#1"/>
    <trip id="177" depart="531.00" from="574011925#1" to="-248415514#3"/>
    <trip id="178" depart="534.00" from="558320180#12" to="-4814370#11"/>
    <trip id="179" depart="537.00" from="-172402438#0" to="11902159#3"/>
    <trip id="180" depart="540.00" from="32094343#1" to="-4818658#5"/>
    <trip id="181" depart="543.00" from="19165946" to="1344817451#2"/>
    <trip id="182" depart="546.00" from="-494157190#4" to="172414838#14"/>
    <trip id="183" depart="549.00" from="-4717031#3" to="27294995#3"/>
    <trip id="184" depart="552.00" from="-11592641#9" to="4869101#6"/>
    <trip id="185" depart="555.00" from="148781614#7" to="30312452#4"/>
    <trip id="186" depart="558.00" from="32107128#0" to="234838600#1"/>
    <trip id="187" depart="561.00" from="-4868455#1" to="-140445187#5"/>
    <trip id="188" depart="564.00" from="217763216#43" to="-4822264#1"/>
    <trip id="189" depart="567.00" from="-4818647#9" to="4818642#1"/>
    <trip id="190" depart="570.00" from="298687482#6" to="-4818627#3"/>
    <trip id="191" depart="573.00" from="-4818643#10" to="-601801150#2"/>
    <trip id="192" depart="576.00" from="-542108442#4" to="-4818624#3"/>
    <trip id="193" depart="579.00" from="-181974064#6" to="-804796737#0"/>
    <trip id="195" depart="585.00" from="4860527#4" to="196602574#1"/>
    <trip id="196" depart="588.00" from="-4818627#15" to="159616956#7"/>
    <trip id="197" depart="591.00" from="-1056898481#3" to="-4814440#2"/>
    <trip id="198" depart="594.00" from="-961463243#1" to="172438253#1"/>
    <trip id="199" depart="597.00" from="204201273#1" to="1309562293#1"/>
    <trip id="200" depart="600.00" from="12103005#1" to="-32097877#1"/>
    <trip id="201" depart="603.00" from="1323929189" to="4860529#1"/>
    <trip id="202" depart="606.00" from="473030857#0" to="-23278053#9"/>
    <trip id="203" depart="609.00" from="-159611907#1" to="1392248314#1"/>
    <trip id="204" depart="612.00" from="200879002#5" to="-4826667#5"/>
    <trip id="205" depart="615.00" from="4814404#14" to="435506005#0"/>
    <trip id="206" depart="618.00" from="234794970#1" to="-44204569#4"/>
    <trip id="207" depart="621.00" from="-27294991#3" to="-1306728291#1"/>
    <trip id="208" depart="624.00" from="-4681367#1" to="1332943087#0"/>
    <trip id="209" depart="627.00" from="4818643#15" to="-141106322#7"/>
    <trip id="210" depart="630.00" from="-669591985#5" to="198464188#2"/>
    <trip id="211" depart="633.00" from="-27294985#5" to="259672387#3"/>
    <trip id="212" depart="636.00" from="1338997394#2" to="-4681368#10"/>
    <trip id="213" depart="639.00" from="204201287#5" to="-12099393#1"/>
    <trip id="214" depart="642.00" from="40025966" to="464727676#1"/>
    <trip id="215" depart="645.00" from="-172360434#1" to="-951858208#3"/>
    <trip id="216" depart="648.00" from="-24252779#1" to="550777787#1"/>
    <trip id="217" depart="651.00" from="135678693#0" to="-1338997402#10"/>
    <trip id="218" depart="654.00" from="-469377091" to="4818643#0"/>
    <trip id="219" depart="657.00" from="1272969040#1" to="478837360#1"/>
    <trip id="220" depart="660.00" from="222240522#14" to="8036295#0"/>
    <trip id="221" depart="663.00" from="17619599#4" to="535304486#6"/>
    <trip id="222" depart="666.00" from="4841925#1" to="196602549#15"/>
    <trip id="223" depart="669.00" from="298687482#2" to="1339758579#1"/>
    <trip id="224" depart="672.00" from="4814443#17" to="159616956#6"/>
    <trip id="225" depart="675.00" from="4860483#3" to="32548081#2"/>
    <trip id="226" depart="678.00" from="1328429562#4" to="-478822510#1"/>
    <trip id="227" depart="681.00" from="-4681371#11" to="202223190#1"/>
    <trip id="228" depart="684.00" from="461162447#1" to="141106322#53"/>
    <trip id="230" depart="690.00" from="-149777637#3" to="-4814439#0"/>
    <trip id="231" depart="693.00" from="-4814384#0" to="-4820665#1"/>
    <trip id="232" depart="696.00" from="149777637#3" to="-196602590#1"/>
    <trip id="233" depart="699.00" from="-4596265#3" to="25601875#3"/>
    <trip id="234" depart="702.00" from="27294991#0" to="-1340472033#2"/>
    <trip id="235" depart="705.00" from="-559251267#2" to="157472805#7"/>
    <trip id="236" depart="708.00" from="-691524713#6" to="-32000977#1"/>
    <trip id="237" depart="711.00" from="-8036205#1" to="4868416#13"/>
    <trip id="238" depart="714.00" from="172430163#2" to="259670327#5"/>
    <trip id="239" depart="717.00" from="4820565#1" to="461737264#0"/>
    <trip id="240" depart="720.00" from="-4869101#3" to="-12100760#2"/>
    <trip id="241" depart="723.00" from="-4860484#4" to="443200743#2"/>
    <trip id="242" depart="726.00" from="4818647#7" to="538899474#2"/>
    <trip id="243" depart="729.00" from="-802045475#0" to="352365233#1"/>
    <trip id="244" depart="732.00" from="155511756#3" to="19165946"/>
    <trip id="245" depart="735.00" from="-32105489#3" to="-32547688#3"/>
    <trip id="246" depart="738.00" from="1185630532#4" to="-1323282838"/>
    <trip id="247" depart="741.00" from="-4826667#10" to="243484113#1"/>
    <trip id="248" depart="744.00" from="-545032150" to="-217763216#6"/>
    <trip id="249" depart="747.00" from="1309555328#5" to="-182759232#9"/>
    <trip id="250" depart="750.00" from="196615703#4" to="-131157676#7"/>
    <trip id="251" depart="753.00" from="-53163005#16" to="166789714#1"/>
    <trip id="252" depart="756.00" from="-131157676#4" to="202227578#3"/>
    <trip id="253" depart="759.00" from="-196602553#3" to="129969997#9"/>
    <trip id="254" depart="762.00" from="-1338997402#5" to="-4869101#7"/>
    <trip id="255" depart="765.00" from="-32094915#5" to="-4822248#16"/>
    <trip id="256" depart="768.00" from="460895703#2" to="-4869101#7"/>
    <trip id="257" depart="771.00" from="435695794#2" to="4814447#6"/>
    <trip id="258" depart="774.00" from="-470897463#2" to="-149832928#4"/>
    <trip id="259" depart="777.00" from="-1272969044#1" to="149832928#7"/>
    <trip id="260" depart="780.00" from="975726584#1" to="-4860483#21"/>
    <trip id="261" depart="783.00" from="203406186#12" to="4681368#10"/>
    <trip id="262" depart="786.00" from="204157463#4" to="44349034#0"/>
    <trip id="263" depart="789.00" from="5347056#3" to="-27294995#8"/>
    <trip id="264" depart="792.00" from="-1273252486#10" to="-202227576#1"/>
    <trip id="265" depart="795.00" from="-181527106#1" to="233756423#9"/>
    <trip id="266" depart="798.00" from="166187515#3" to="-32105470#1"/>
    <trip id="267" depart="801.00" from="27077538#1" to="462896922#6"/>
    <trip id="268" depart="804.00" from="-222234477#0" to="196550929#0"/>
    <trip id="269" depart="807.00" from="351515865#0" to="-172425561#7"/>
    <trip id="270" depart="810.00" from="4814407#1" to="558320186#3"/>
    <trip id="271" depart="813.00" from="-172402430" to="-1309556759#3"/>
    <trip id="273" depart="819.00" from="545030254#0" to="-538893850#5"/>
    <trip id="274" depart="822.00" from="29019433#1" to="-148781614#4"/>
    <trip id="275" depart="825.00" from="254732795#1" to="198464179#2"/>
    <trip id="276" depart="828.00" from="-170013599#0" to="46695164#1"/>
    <trip id="277" depart="831.00" from="4818644#0" to="19154175#4"/>
    <trip id="278" depart="834.00" from="-17557365#4" to="766734721#13"/>
    <trip id="279" depart="837.00" from="4681367#1" to="-4860477#1"/>
    <trip id="280" depart="840.00" from="-951858207#1" to="-4869081#35"/>
    <trip id="281" depart="843.00" from="1339183091#0" to="-4830621#4"/>
    <trip id="282" depart="846.00" from="4818643#15" to="4814418#1"/>
    <trip id="283" depart="849.00" from="-172360433#2" to="558320178#5"/>
    <trip id="284" depart="852.00" from="202223177#5" to="4814440#5"/>
    <trip id="286" depart="858.00" from="32097438#17" to="558320189#0-AddedOnRampEdge"/>
    <trip id="287" depart="861.00" from="-4814371#2" to="4814370#7"/>
    <trip id="288" depart="864.00" from="148781614#5" to="1338997384#1"/>
    <trip id="289" depart="867.00" from="1163237865#4" to="32096713#23"/>
    <trip id="290" depart="870.00" from="-4814370#17" to="4818645#1"/>
    <trip id="291" depart="873.00" from="4814443#2" to="-159611909#0"/>
    <trip id="292" depart="876.00" from="4826693#15" to="-4681368#1"/>
    <trip id="293" depart="879.00" from="129969997#1" to="196555674"/>
    <trip id="294" depart="882.00" from="-4869100#0" to="-1323282836"/>
    <trip id="295" depart="885.00" from="4818644#14" to="-25601831"/>
    <trip id="296" depart="888.00" from="-32096409#1" to="478054914#1"/>
    <trip id="297" depart="891.00" from="-4830592#12" to="4826739#6"/>
    <trip id="298" depart="894.00" from="27294984#6" to="-4814404#2"/>
    <trip id="299" depart="897.00" from="-1237918584#9" to="53163278"/>
    <trip id="300" depart="900.00" from="-159611909#0" to="31973497#1"/>
    <trip id="301" depart="903.00" from="1338997387#0" to="458210038#1"/>
    <trip id="302" depart="906.00" from="254732795#1" to="203406153#2"/>
    <trip id="303" depart="909.00" from="1338997391#4" to="472484076#4"/>
    <trip id="304" depart="912.00" from="-163303432#4" to="-32551220#0"/>
    <trip id="305" depart="915.00" from="25601844#0" to="-4818642#1"/>
    <trip id="306" depart="918.00" from="172425545#1" to="133070225#1"/>
    <trip id="307" depart="921.00" from="143323555#2" to="-957955619"/>
    <trip id="308" depart="924.00" from="32551214" to="-4822264#4"/>
    <trip id="309" depart="927.00" from="27294985#5" to="-4814385#5"/>
    <trip id="310" depart="930.00" from="-470667213#1" to="-174414230#5"/>
    <trip id="311" depart="933.00" from="-27294984#1" to="-173947022#3"/>
    <trip id="312" depart="936.00" from="1475958086#1" to="4609252#3"/>
    <trip id="313" depart="939.00" from="-25601844#2" to="-32101654#10"/>
    <trip id="314" depart="942.00" from="1338997381#3" to="32000793#1"/>
    <trip id="315" depart="945.00" from="654933944#3" to="1423613729#2"/>
    <trip id="316" depart="948.00" from="-4814416#5" to="-166789698#18"/>
    <trip id="317" depart="951.00" from="-27294985#2" to="-453656864#6"/>
    <trip id="318" depart="954.00" from="-248415514#11" to="-1271382332#4"/>
    <trip id="319" depart="957.00" from="1463656910#1" to="-4814398#4"/>
    <trip id="320" depart="960.00" from="60428762#0" to="163303449#10"/>
    <trip id="321" depart="963.00" from="259672390#1" to="-181974064#7"/>
    <trip id="322" depart="966.00" from="4822235#1" to="1338997393#4"/>
    <trip id="323" depart="969.00" from="4822262#1" to="172405326#1"/>
    <trip id="324" depart="972.00" from="131157676#2" to="1219514884#8"/>
    <trip id="325" depart="975.00" from="-25601826" to="-1338997410#1"/>
    <trip id="326" depart="978.00" from="5064955#1" to="1338766468"/>
    <trip id="327" depart="981.00" from="4814414#5" to="-545030253"/>
    <trip id="328" depart="984.00" from="-1463656917#2" to="198464186#5"/>
    <trip id="329" depart="987.00" from="-1339183077" to="-202223191#7"/>
    <trip id="330" depart="990.00" from="163317205" to="-4818631#0"/>
    <trip id="331" depart="993.00" from="880365080#1" to="-172687874#7"/>
    <trip id="332" depart="996.00" from="461150493#1" to="196471995#2"/>
    <trip id="333" depart="999.00" from="470897454#0" to="-443200744#1"/>
    <trip id="334" depart="1002.00" from="1409830427#3" to="1271382335#1"/>
    <trip id="335" depart="1005.00" from="1218664352#2" to="4820659#2"/>
    <trip id="336" depart="1008.00" from="804796738#4" to="-4818637"/>
    <trip id="337" depart="1011.00" from="196602590#4" to="196555665"/>
    <trip id="338" depart="1014.00" from="32104843#1" to="53163005#9"/>
    <trip id="339" depart="1017.00" from="-31973512#1" to="-32096713#14"/>
    <trip id="340" depart="1020.00" from="204882029#0" to="-204200125#0"/>
    <trip id="341" depart="1023.00" from="-237300054#0" to="-1475958086#1"/>
    <trip id="342" depart="1026.00" from="-11592650#1" to="1271382335#1"/>
    <trip id="344" depart="1032.00" from="-459850810#1" to="27294991#6"/>
    <trip id="345" depart="1035.00" from="27294985#7" to="1272969041#1"/>
    <trip id="346" depart="1038.00" from="253741684#2" to="4869100#5"/>
    <trip id="347" depart="1041.00" from="469399739#1" to="198248661#1"/>
    <trip id="348" depart="1044.00" from="209086945#5" to="494164803#0"/>
    <trip id="349" depart="1047.00" from="-804796739#0" to="159611909#0"/>
    <trip id="350" depart="1050.00" from="203406153#2" to="4868451#5"/>
    <trip id="351" depart="1053.00" from="4814423#1" to="-141106322#37"/>
    <trip id="352" depart="1056.00" from="-217767867#1" to="-4818643#3"/>
    <trip id="353" depart="1059.00" from="357501306#1" to="172198867#0"/>
    <trip id="354" depart="1062.00" from="-4814439#3" to="-17619603#1"/>
    <trip id="355" depart="1065.00" from="253752849#0" to="27210522#0"/>
    <trip id="356" depart="1068.00" from="510940439#1" to="1339183080#6"/>
    <trip id="357" depart="1071.00" from="1338997393#7" to="-149832927#4"/>
    <trip id="358" depart="1074.00" from="-1338997387#0" to="1163237865#4"/>
    <trip id="359" depart="1077.00" from="-4822220#1" to="-470897453"/>
    <trip id="360" depart="1080.00" from="-163216720#1" to="558320180#10"/>
    <trip id="361" depart="1083.00" from="4818621#3" to="172407531#10"/>
    <trip id="362" depart="1086.00" from="535309483#1" to="975726584#1"/>
    <trip id="363" depart="1089.00" from="233756657#5" to="-4814384#14"/>
    <trip id="364" depart="1092.00" from="-1338997388#1" to="457363887#0"/>
    <trip id="365" depart="1095.00" from="1318245274#1" to="204200131#1"/>
    <trip id="366" depart="1098.00" from="4869078#1" to="-25601826"/>
    <trip id="367" depart="1101.00" from="172438256#0" to="202223181#13"/>
    <trip id="368" depart="1104.00" from="1338997392#1" to="-160556295#0"/>
    <trip id="369" depart="1107.00" from="-4860475#2" to="-4822954#6"/>
    <trip id="370" depart="1110.00" from="229213317#1" to="4820571#6"/>
    <trip id="371" depart="1113.00" from="-4822259#7" to="25601871"/>
    <trip id="372" depart="1116.00" from="-4814439#0" to="52510292#1"/>
    <trip id="373" depart="1119.00" from="4814385#8" to="163216720#1"/>
    <trip id="374" depart="1122.00" from="1272736250#1" to="-4820565#5"/>
    <trip id="375" depart="1125.00" from="-4822221#1" to="574011925#0"/>
    <trip id="376" depart="1128.00" from="-545030254#0" to="1382255197"/>
    <trip id="377" depart="1131.00" from="8036295#1" to="204882029#4"/>
    <trip id="378" depart="1134.00" from="149832927#4" to="-766734719#10"/>
    <trip id="379" depart="1137.00" from="-25601875#3" to="-4868450#1"/>
    <trip id="380" depart="1140.00" from="453656864#12" to="198248662#13"/>
    <trip id="381" depart="1143.00" from="459593647#2" to="-298687478#0"/>
    <trip id="382" depart="1146.00" from="159611909#0" to="4869138#0"/>
    <trip id="383" depart="1149.00" from="11902159#3" to="27076647#2"/>
    <trip id="384" depart="1152.00" from="-17557375#14" to="600592567#8"/>
    <trip id="385" depart="1155.00" from="196471985#1" to="-467412727#1"/>
    <trip id="386" depart="1158.00" from="-204200125#0" to="163303431#5"/>
    <trip id="387" depart="1161.00" from="159706738#6" to="-163303432#12"/>
    <trip id="388" depart="1164.00" from="848656103#0" to="4869072#1"/>
    <trip id="389" depart="1167.00" from="127734686#1" to="-172449242#3"/>
    <trip id="390" depart="1170.00" from="4814447#6" to="1339183073#1"/>
    <trip id="391" depart="1173.00" from="298687479#1" to="1339758601#1"/>
    <trip id="392" depart="1176.00" from="-4814385#5" to="4818621#11"/>
    <trip id="393" depart="1179.00" from="691524712#1" to="-4681368#1"/>
    <trip id="394" depart="1182.00" from="159616954#1" to="-494158909#13"/>
    <trip id="395" depart="1185.00" from="4869085#8" to="1339758599#2"/>
    <trip id="396" depart="1188.00" from="4826667#10" to="4822222"/>
    <trip id="397" depart="1191.00" from="-4814398#1" to="470897467#0"/>
    <trip id="398" depart="1194.00" from="-672014519#10" to="494164803#0"/>
    <trip id="399" depart="1197.00" from="1339758577#1" to="4814413#7"/>
    <trip id="400" depart="1200.00" from="-4814416#4" to="-4818627#15"/>
    <trip id="401" depart="1203.00" from="172449242#3" to="970997094"/>
    <trip id="402" depart="1206.00" from="1338997389#1" to="-202223190#7"/>
    <trip id="403" depart="1209.00" from="148781614#8" to="-4841708#1"/>