<?xml version="1.0" encoding="UTF-8"?>

<!-- generated on 2026-06-22 16:44:01.832305 by randomTrips.py UNKNOWN
<configuration>
    <net-file value="calgary_downtown.net.xml"/>
    <output-trip-file value="output/calgary_downtown.trips.xml"/>
    <route-file value="output/calgary_downtown.rou.xml"/>
    <length value="True"/>
    <validate value="True"/>
    <period value="3.0"/>
</configuration>
-->

<!-- generated on 2026-06-22 16:43:54 by Eclipse SUMO duarouter Version 1.18.0
<configuration xmlns:xsi="http://www.w3.org/2001/XMLSchema-instance" xsi:noNamespaceSchemaLocation="http://sumo.dlr.de/xsd/duarouterConfiguration.xsd">

    <input>
        <net-file value="calgary_downtown.net.xml"/>
        <route-files value="output/calgary_downtown.trips.xml"/>
    </input>

    <output>
        <output-file value="output/calgary_downtown.rou.xml"/>
        <alternatives-output value="NUL"/>
    </output>

    <time>
        <begin value="0"/>
        <end value="3600.0"/>
    </time>

    <report>
        <no-warnings value="true"/>
        <ignore-errors value="true"/>
        <no-step-log value="true"/>
    </report>

</configuration>
-->

<routes xmlns:xsi="http://www.w3.org/2001/XMLSchema-instance" xsi:noNamespaceSchemaLocation="http://sumo.dlr.de/xsd/routes_file.xsd">
    <vehicle id="0" depart="0.00">
        <route edges="202223190#1 -1309555328#2"/>
    </vehicle>
    <vehicle id="1" depart="3.00">
        <route edges="-4814395#0 4814395#0 4814395#1 149832863#0 149832863#1 149832863#2 149832863#3 -1272965904 -1272965902#1 -202223185#3 -202223185#2 1339758581#1 1339758581#2 202223174#0 202223174#3 1338997381#1 1338997381#3 1338997381#6 1347852064#1 202223193#1 202223193#4 202223193#5 202223193#6 46788336#1 46788336#3 46788336#6 46788336#8 46788336#9 -217763216#11 -217763216#10 -217763216#7 -217763216#6 -217763216#3 -217763216#2 -217763216#0 -469446716#5 -469446716#3 -469446721#2 -469446710#1 -217763212#0 -1272969048#1 -1272969046#0 -1272969044#1 -1272969042#1 -1272969040#1 -1272969039#0 -1272969037#1 -4614605#16 -4614605#15 -4614605#12 -4614605#11 -4614605#7 -4614605#6 -4614605#3 -4614605#2 -4614605#1 -4614605#0 -469446723#1 -469446724#1 -469377091 -468645545#1 -1239025157 1227230484 11902164#0 11902164#1 11902164#2 11902164#3 11902164#4 11902164#5 11902164#7 754979807#0 754979807#1 196471980#0 196471980#2 196471980#3 1382260856#1 1382260856#2 1382260856#3 461162448#0 754979810#0 754979810#1 461162442 1227230486 461162447#0 461162447#1 461162440 257636719-AddedOnRampEdge 257636719 32526666#0 32526666#2 4411654#0 4411654#1 -151953020#1 -151953020#0 -1227216757#1 -1273326110#0 -31973479#2 -461737264#1 -1273326111#1 -544982887#1 -544982885#1 -198464182#1 -550777787#1 -550777787#0 -135678691#3 -259670519#1 -438869228#1"/>
    </vehicle>
    <vehicle id="3" depart="9.00">
        <route edges="484761642 166187514 166187513#0 166187513#1 198464171#1 198464171#4 198464192#1 229213317#1 229213317#3 229213317#4 555858211#0 555858211#1 555858211#2 229213324#1 200875569#2 200875569#3 250261983 12100749#0 12100749#1 12100749#2 970997094 -1323282838 -12100751 -1323282836 -181921961 -459167664#1 4609139#0 4609139#1 4609139#2 4609139#3 4609139#4 204157473#2 204157473#3 204157473#4 443200742 1479862928 1479862927 443200743#1 443200743#2 443200743#3 443200743#4 443200743#5 443200743#7 443200743#8 443200743#9 443200743#10 183666520#0 466925139#0 202227573#1 443201187 196555643 196555643-AddedOffRampEdge 196555639#0 196555639#0-AddedOffRampEdge 196555639#1 196555639#4 461139254#1 196615705 257484723 196615690#0 461153542#1 1461965036 196555671#0 196555671#1 53163005#1 53163005#2 53163005#5 53163005#6 53163005#9 53163005#10 53163005#13 53163005#14 53163005#16 -25601844#7 -25601844#6 -25601844#5 -25601844#4 -25601844#3 -25601849#1 -25601849#0 -159611909#2 -159611909#1 -159611909#0"/>
    </vehicle>
    <vehicle id="4" depart="12.00">
        <route edges="-8036296#1 8036296#1 469376948#1 -298687478#0 -55364903 -4637525 8036208#1 8036208#3 8036208#5 8036208#6 8036208#7 458210038#1 292896532 -1323929188"/>
    </vehicle>
    <vehicle id="5" depart="15.00">
        <route edges="-32101654#13 27294990#6 1338997382#1 1347852063#8 1347852063#10 1339387330#2 1339387330#4 1339387330#5 1339387330#9 1339387330#10 1339387330#11 1339758574#1 1339758582#1"/>
    </vehicle>
    <vehicle id="6" depart="18.00">
        <route edges="-1309562293#5 -1309562293#2 -1309562293#1 -1286700734#0 -1271382340 -461150493#2 -461150493#0 -461150487 461150486#0 461150486#1 544974145#0 544974145#1 544974139#1 196615703#0 196615703#4 196615703#8 196615703#9 558320183#0 558320183#4 558320183#5 558320183#6 461162453#1 470667220#0 470667220#1 19163550#1 558320178#0 558320178#1 -469446721#2 -469446710#1 -217763212#0 -1272969048#1 -1272969046#0 -1272969044#1 4869085#1 4869085#2 4869085#3 4869085#6 4869086#6 4869086#7 4869086#8 -27294995#6"/>
    </vehicle>
    <vehicle id="7" depart="21.00">
        <route edges="203406186#10 203406186#12 203406186#14 -203406186#14 -203406186#13 -203406186#11 -203406186#9 -203406186#8 -203406186#7 -203406186#4 -203406186#3 -203406186#2 -203406186#1 32517496 345479270 971004803 345479272#1 32551261#0 127734690#1 255760889#0 255760889#2 255760889#3 166789695#0 166789695#1 166789695#2 166789695#3 467454087#1 467454087#2 141116802#1 141116802#2 198464186#5 1271398200#0 203177444#2 203177444#3 203177444#4 196471985#1 196471985#3 196471985#4 196471985#5 204201291#1 196565641 4397264#0 4397264#3 4397264#4 32000911 461139248 254732794#1 -467125367#2 -172407531#11 -1323527920#1 -1323527920#0 -157472805#7 -157472805#4 -157472805#1 -171247689#8 -171247689#7 -171247689#4 -171247689#3 -171247689#1 -171247689#0 -12099393#1 -12099393#0 -1457073733 -443200744#1 466925139#0 202227573#1 443201187 196555643 196555643-AddedOffRampEdge 196555639#0 196555639#0-AddedOffRampEdge 196555639#1 196555639#4 461139254#1 196615705 257484723 196615690#0 461153542#1 1461965036 196555671#0 196555671#1 53163005#1 53163005#2 53163005#5 53163005#6 53163005#9 53163005#10 53163005#13 53163005#14 53163005#16 -25601844#7 -25601844#6 -25601844#5 -25601844#4 -25601844#3 -25601849#1 -25601849#0 -159611909#2 159611909#2"/>
    </vehicle>
    <vehicle id="8" depart="24.00">
        <route edges="-32105489#2 -32105489#1 -32105489#0 32105489#0 32105489#1 32105489#2 32105489#3 32105489#4 298687482#3 298687482#4 298687482#5 298687482#6 298687482#7 298687482#8 298687482#9 298687482#10 298687482#11 473030857#0 961460493 234840801 467166544 467166543 -461139248 -19164932 32000829#0 32000829#1 52510288#0 52510288#1 234794970#0 234794970#1 -559251267#2 -209086945#6 -209086945#2 209086946#1 209086946#2 209086946#3 200875569#2 200875569#3 250261983 4712562 24474078#0 24474078#1-AddedOnRampEdge 24474078#1 24474078#2 24474078#3 24474078#4 1338766471#0 1338766471#1 1320669945-AddedOnRampEdge 1320669945 46695164#1 46695164#2 166790913#1 166790913#2 1271153883#2 459593649#1 132936844#2 132936844#4 132936844#8 464727673 255627354#3 255627354#5 464727676#1 166789710#1 464115341 -464115342#0 -203206912#13 17557389#1"/>
    </vehicle>
    <vehicle id="9" depart="27.00">
        <route edges="4814370#7 -4814394#0 -471117252#1 -471117252#0 558320186#0 558320186#1 558320186#2 558320186#3 558320186#8 558320186#9 558320187#0 558320187#1 558320187#3 -461150487 -461150488#1 -1452392418 -1452392417 -461150494#1 -235339890 -473051279 -510940439#2 -510940439#1 -235339887#0 -1452392416 -166373715#2 -166373715#0 -182057549#3 -182057549#2 -182057549#0 -848656100 -848656099 4790313#0 848656103#0 848656103#1 848656103#2 848656103#3 848656103#6 848656103#7 848656103#10 848656103#11 4820565#5 4820565#6 4820565#8 12102996#0 12102996#1 12102996#2 12102996#3 -204157463#9 -204157463#8 -204157463#7 -204157463#5 -204157463#4 -204157463#3 -204157463#2 204157474#1 204157474#2 204157474#3 459167664#1 181921961 12100724 1323282835 1382255197 970997093 1338766474 1320669945-AddedOnRampEdge 1320669945 46695164#1 46695164#2 166790913#1 166790913#2 1271153883#2 459593649#1 132936844#2 132936844#4 132936844#8 464727673 -12100762#1"/>
    </vehicle>
    <vehicle id="11" depart="33.00">
        <route edges="-4830592#12 -4830592#11 -4830592#8 -4830592#7 -4830592#6 -4830592#3 -4830592#1 -4830592#0 -459593645#1 -459593645#0 -459593646#2 -163303445#1 -203206907 -464115341 -166789710#2 464727675#1 464727675#3 130359884#0 130359884#1 130359884#5 130359884#9 130359884#10 1056898481#3 32000977#0 32000977#1 32000977#2 32000977#4 32000977#5 32000977#6 32000977#9 32000977#11 163317172#1 163317172#2 491849870#2 494157192#1 1273254690#0 1273254690#1 1273254690#2 1273254692#1 351515865#0 1273252488#1 1273252487#0 1273252487#1 166789702#1 166789702#3 166789702#7 166789702#8 141116818#2 141116818#4 141116818#6 222033562#2 471326820#0 470022853#1 32517306#0 203406186#1 203406186#2 203406186#3 203406186#4 203406186#6 203406186#8 203406186#9 203406186#10 203406186#12 203406186#14 -203406186#14 -203406186#13"/>
    </vehicle>
    <vehicle id="12" depart="36.00">
        <route edges="544981509#1 -544981509#1 -222234478#0 222234473 222234461 222234468#0 -478054921#2 -478054921#1 -478054921#0 478054919#2 478054919#3 -478054923#2 -478054923#1 -478054923#0 478054922#2 478054922#3 -4818621#18 -4818621#17 -4818621#16 -4818621#15 -4818621#14 -4818621#13 -4818621#12 -4818621#11 -4818621#10 -4818621#9 -4818621#7 -4818621#6 -4818621#3 -4818621#1 235339892#0 -235339890 -473051279 -510940439#2 -510940439#1 -235339887#0 -1452392416 -166373715#2 -166373715#0 -182057549#3 -182057549#2 -182057549#0 -848656100 -848656099 -202227565 -656746143#2 -1452268510 -467193016#2 -140445186#4 -140445186#2 -254732794#3 -461139248 -19164932 32000829#0 32000829#1 52510288#0 52510288#1 234794970#0 234794970#1 -559251267#2 -209086945#6 -209086945#2 163317179#1 163317179#3 163317179#5 163317179#6 555858214#0 555858214#1 555858214#2 555858214#6 -4637453#5 -4637453#4 -4637453#3 -198464171#5 -198464171#2 -203406179#7 -203406179#5 -203406179#3 -203406179#2 -203406167#4 -203406167#2 203406169#2 203406169#3 203406169#4 -4826689#3"/>
    </vehicle>
    <vehicle id="13" depart="39.00">
        <route edges="-163303432#12 -163303432#11 -163303432#10 -132936844#5 -132936844#2 -459593649#1 46695236#0 1272736249#1 1272736250#0 1272736250#1 1272736251#0 166789708#1 166789708#2 1272736253#0 491849870#2 494157192#1 1273254690#0 1273254690#1 1273254690#2 1273254692#1 351515865#0 1273252488#1 1273252487#0 1273252487#1 -163317177#32"/>
    </vehicle>
    <vehicle id="14" depart="42.00">
        <route edges="4818635#8 4818647#9 469446693#1 469446693#2 469446693#3 469446693#4 469446693#5 469446693#6 -469446695#1 -469446695#0 -298687479#11 -298687479#10 -298687479#9 -298687479#8 -298687479#7 -298687479#5 -298687479#4 -298687479#1 -298687479#0 -298687478#0 -55364903 -4637525 32547688#1 467412728#1 203177437#1 19165392#1 19165392#2 19165392#5 19165392#6 198248650#1 198248650#2 254287943#1 254287943#2 254287943#4 11902159#0 11902159#1 11902159#2 11902159#3 11902157 1097827504 19166273#0"/>
    </vehicle>
    <vehicle id="15" depart="45.00">
        <route edges="4814368#5 4814368#6 4814413#6 4814413#7 -202223186#8 -202223186#7 -202223186#6 -202223186#3 -202223186#2 -1339758574#1 -1339387330#11 -1339387330#10 -1339387330#9 -1339387330#5 -1339387330#4 -1339387330#2 -1347852063#10 -1347852063#8 -1347852063#4 -1347852063#2 -252785553#16 -252785553#13 -252785553#10 -252785553#8 -252785553#5 -252785553#3 -252785553#0 -1427294340#2 196615703#8 196615703#9 558320183#0 558320183#4 558320183#5 558320183#6 461162453#1 470667220#0 470667220#1 19163550#1 558320178#0 558320178#1 -469446721#2 -469446710#1 -217763212#0 -1272969048#1 32096409#1 32096409#4"/>
    </vehicle>
    <vehicle id="16" depart="48.00">
        <route edges="1475958087#3 -4822268#3 -32096713#1 -4822248#6 -182944827#2 -1269275832#4 -1269275832#2 -1269275832#1 1382260856#1 1382260856#2 1382260856#3 461162448#0 754979810#0 754979810#1 461162442 1227230486 461162447#0 461162447#1 461162440 257636719-AddedOnRampEdge 257636719 32526666#0 32526666#2 4411654#0 4411654#1 754979809#0 754979809#2 32526667 222970223#0 198464181#1 198464181#2 32548081#1 32548081#2 198248661#1 140445148#1 140445148#2 140445148#4 140445148#5 166789707#0 166789707#1 166789707#2 166789707#3 166789707#4 166789707#6 544976812#0 544976812#1 254577645 135678688#1 135678688#3 1463656911#1 1463656911#2 166789703#0 166789703#1 198248662#2 198248662#5 198248662#9 198248662#10 198248662#13 198248662#18 -23278070#11 -23278070#10 -23278070#2 -233755780#1 -166789714#2 -233756197#1 -233756423#7 -233756423#3 -233756423#1 -204201293#2 -233756424#5 -233756424#3 -233756424#2 -233756425 -457363881 -233756658#1 -233756657#7 -233756657#6 -233756657#2 -141101430#4 -141101430#3 -141101430#2 -141101430#0 -464891528#4 -464891528#3 -464891533#5 -464891533#3 -464891533#2 -600592567#12 600592567#11"/>
    </vehicle>
    <vehicle id="17" depart="51.00">
        <route edges="-4869097#0 -4869093 -468645547#1 -1239025157 1227230484 11902164#0 11902164#1 11902164#2 11902164#3 11902164#4 11902164#5 11902164#7 754979807#0 754979807#1 196471980#0 196471980#2 196471980#3 1382260856#1 1382260856#2 1382260856#3 461162448#0 754979810#0 754979810#1 461162442 1227230486 461162447#0 461162447#1 461162440 257636719-AddedOnRampEdge 257636719 32526666#0 32526666#2 4411654#0 4411654#1 754979809#0 754979809#2 32526667 222970223#0 198464181#1 198464181#2 32548081#1 32548081#2 198248661#1 140445148#1 140445148#2 140445148#4 140445148#5 166789707#0 166789707#1 166789707#2 166789707#3 166789707#4 166789707#6 544976812#0 544976812#1 254577645 135678688#1 135678688#3 1463656912#1 1463656912#2 166789694#0 166789694#1 12100756#1 12100756#2 12100756#3 166789715#1 166789715#2 166789715#6 166789715#8 166789715#9 166789715#10 166789715#11 1269812661#1 1269812659#0 1269812659#1 1269812660#0 1269812660#3 1269812662#1 807915577#0 807915577#4 807915577#5 807915577#7 807915577#12 807915577#13 1269812658#0 1409499802#1 1409499802#2 166790921#0 166790921#4 166790921#5 166790921#7 166790921#8 166790921#12 166790921#15 166790921#19 -466603019#1 -1442626581 -171069260#3 -163317172#2 -163317172#1 -32000977#11 -32000977#9 -32000977#6 -32000977#5 -32000977#4 -32000977#2 -32000977#1 -32000977#0 -1056898481#3 -130359884#10 -130359884#9 -130359884#6 -130359884#2 -130359884#0 4860477#1 4860477#3 163303436#1"/>
    </vehicle>
    <vehicle id="18" depart="54.00">
        <route edges="4814440#5 4814440#6 4814440#9 4814440#10 1340472033#1 1340472033#2 1340472033#3 1340472031#0 1340472031#1 53163170#1 53163170#4 9333067 9333067-AddedOffRampEdge 203167571#0 279209531 32106787#1 558320189#0-AddedOnRampEdge 558320189#0 558320189#2 558320189#4 558320189#5 558320189#6 558320189#6-AddedOffRampEdge 461150489#0 461150489#2 461150486#0 461150486#1 544974145#0 544974145#1 544974139#1 196615703#0 196615703#4 196615703#8 196615703#9 558320183#0 558320183#4 558320183#5 558320183#6 461162453#1 470667220#0 470667220#1 19163550#1 558320178#0 558320178#1 558320178#5 558320178#6 558320179#0 558320179#1 558320179#3 558320179#4 558320179#5 558320179#6 1483909398#0 1483909398#1 1483909398#2 279164909#1 1483909401#0 1483909401#2 196615685#1"/>
    </vehicle>
    <vehicle id="19" depart="57.00">
        <route edges="4820662#1 4820571#5 4820571#6 4820597#1 4820597#2 4820597#5 4820597#6 443200743#1 443200743#2 443200743#3 443200743#4 443200743#5 443200743#7 443200743#8 443200743#9 443200743#10 183666520#0 466925139#0 202227573#1 443201187 196555643 196555643-AddedOffRampEdge 196555639#0 196555639#0-AddedOffRampEdge 196555639#1 196555639#4 461139254#1 196615705 257484723 196615690#0 461153542#1 1461965036 196555671#0 196555671#1 196555654#1 196555654#2 202223190#1 202223190#4 202223190#7 202223190#8 202223185#2 202223185#3 1272965902#1 1272965904 1272965903 172425546#0 172425546#1 172425561#1 222240522#25 222240522#26 172425545#5"/>
    </vehicle>
    <vehicle id="20" depart="60.00">
        <route edges="27294989#1 27294989#4 27294989#7 217763216#26 217763216#27 217763216#30 217763216#31 217763216#33 217763216#34 1338997395#1 -1338997395#1"/>
    </vehicle>
    <vehicle id="21" depart="63.00">
        <route edges="-443201187 443201187 196555643 196555643-AddedOffRampEdge 196555639#0 196555639#0-AddedOffRampEdge 196555639#1 196555639#4 461139254#1 196615705 257484723 196615690#0 461153542#1 1461965036 196555671#0 196555671#1 -1340472031#1 -1340472031#0 -1340472033#3 -1340472033#2 -1340472033#1 -4814440#10 -4814440#9 -4814447#3"/>
    </vehicle>
    <vehicle id="22" depart="66.00">
        <route edges="-149832928#1 -1347852063#4 -1347852063#2 -252785553#16 -252785553#13 -252785553#10 -252785553#8 -252785553#5 -252785553#3 -252785553#0 -1427294340#2 196615703#8 196615703#9 558320183#0 558320183#4 558320183#5 558320183#6 461162453#1 470667220#0 470667220#1 19163550#1 558320178#0 558320178#1 -469446721#2 -469446710#1 -217763212#0 -1272969048#1 -1272969046#0 -1272969044#1 -1272969042#1 -1272969040#1 -1272969039#0 -1272969037#1 -4614605#16 -4614605#15 -4614605#12 -4614605#11 -4614605#7"/>
    </vehicle>
    <vehicle id="23" depart="69.00">
        <route edges="-166789698#7 -166789698#1 -1273006478#2 166789705#1 166789705#3 166789705#4 166789705#6 166789705#7 1269868035#0 1269868035#1 1269868035#2 555858216#0 32000798#1 32000798#3 141106313#1 1383744529#0 196565641 4397264#0 4397264#3 4397264#4 32000911 461139248 254732794#1 140445186#1 140445186#4 467193016#1 1452268510 656746143#1 202227565 848656099 848656100 182057549#0 182057549#1 182057549#3 166373715#0 166373715#1 1452392416 235339887#0 510940439#1 510940439#2 473051279 235339890 461150494#1 1452392417 1452392418 461150488#0 461150487 461150493#0 461150493#1 1271382340 1286700734#0 1271382338#1 1271382339 1271382336#0 1271382335#1 1271382333#0 1271382331#1 1271382330#0 202223185#2 202223185#3 1272965902#1 1272965904 1272965903 172425546#0 172425546#1 -1339758597#2 -1339758597#1 4814385#1 4814385#2 4814385#3 4814385#5 -4814384#14 -4814384#13 -4814384#10 -4814384#9 -4814413#0"/>
    </vehicle>
    <vehicle id="24" depart="72.00">
        <route edges="202223177#5 -4681371#16 -4681371#15 202223190#7 202223190#8 1339758581#1 1339758581#2 202223174#0 202223174#3 1338997381#1 1338997381#3 1338997381#6 1347852064#1 202223193#1 202223193#4 202223193#5 202223193#6 -141106322#14 -141106322#11 -141106322#10 -141106322#7 -141106322#5 -141106322#4 -141106322#3 -558320177#1 -461162456#10 -461162456#5 -461162456#3 -461162456#2 -461162456#1 -461162456#0 -469446695#1 -469446695#0 -298687479#11 -298687479#10 -298687479#9 -298687479#8 -298687479#7 -298687479#5 -298687479#4 -298687479#1 -298687479#0 4822231#0 4822231#1 4822231#4 4869081#26 4869081#27 -4869069#0"/>
    </vehicle>
    <vehicle id="25" depart="75.00">
        <route edges="-4869079#4 -4869081#31 -4869081#30 -4869081#27 -4869081#26 -4822231#4 -4822231#1 -4822231#0 -298687478#0 -55364903 -4637525 32547688#1 467412728#1 545005994#1 52510292#1 52510292#2 222970224#1 196588530#1 468684736#1 166790911#0 166790911#2 166790911#3 166789704#0 166789704#1 166789704#2 468684737 468697559#1 468697559#3 -254729345#1 254729346 -254729343#2 -254729343#0 127734686#0 127734686#1 127734686#2 166789715#1 166789715#2 -1056925882#3 -196602549#18 -196602549#16 -196602549#12 -196602549#10 -196602549#8 -196602549#4 -196602549#3 -196602549#2 -453656864#13 -453656864#11 -453656864#10 -453656864#8 -453656864#7 -453656864#6 -453656864#4 -453656864#3 -453656864#2 -453656864#1 -1273587823#0 -802079273#12 -802079273#9 -32099500#3 -32099500#2 -32099500#1 -32099500#0 -4830620#16 -32095714#3"/>
    </vehicle>
    <vehicle id="26" depart="78.00">
        <route edges="-4814368#13 -149832927#1 -202223186#12 -202223186#10 -202223186#8 -202223186#7 -202223186#6 -202223186#3 -202223186#2 -1339758574#1 -1339387330#11 -1339387330#10 -1339387330#9 -1339387330#5 -1339387330#4 -1339387330#2 -1347852063#10 -1347852063#8 -1347852063#4 -1347852063#2 -252785553#16 -252785553#13 -252785553#10 -252785553#8 -252785553#5 -252785553#3 -252785553#0 -1427294340#2 196615703#8 196615703#9 558320183#0 558320183#4 558320183#5 558320183#6 -558320177#1 -461162456#10 -461162456#5 -461162456#3 -461162456#2 -461162456#1 -461162456#0 -469446695#1 -469446695#0 -298687479#11 -298687479#10 -298687479#9 -298687479#8 -298687479#7 -298687479#5 -298687479#4 -298687479#1 -298687479#0 -298687478#0 -55364903 -4637525 32547688#1 467412728#1 545005994#1 52510292#1 52510292#2 222970224#1 196588530#1 468684736#1 166790911#0 166790911#2 166790911#3 166789704#0 166789704#1 166789704#2 468684737 468697559#1 468697559#3 -254729345#1 254729346 -254729343#2 -254729343#0 127734686#0 127734686#1 127734686#2 166789715#1 166789715#2 -1056925882#3 -196602549#18 -196602549#16 -196602549#12 -196602549#10 1461299416#1 1461299416#2 1461299416#3 1461299416#4 -470897460#1 -470897467#4 506294366#6 506294366#7 506294366#8 506294366#9 506294366#10 506294366#12"/>
    </vehicle>
    <vehicle id="27" depart="81.00">
        <route edges="203406159#1 203406159#2 203406159#3 203406159#4 203406159#5 203406152#0 203406152#1 166789709#2 166789709#3 248402400#1 248402400#2 1349096472#1 1338766475 970997094 -1323282838 -12100751 -1323282836 -181921961 -459167664#1 4609139#0 4609139#1 4609139#2 4609139#3 4609139#4 204157473#2 204157473#3 204157473#4 443200742 1479862928 1479862927 443200743#1 443200743#2 443200743#3 443200743#4 443200743#5 443200743#7 443200743#8 443200743#9 443200743#10 183666520#0 466925139#0 202227573#1 443201187 196555643 196555643-AddedOffRampEdge 196555639#0 196555639#0-AddedOffRampEdge 196555639#1 196555639#4 461139254#1 196615705 257484723 196615690#0 461153542#1 1461965036 196555671#0 196555671#1 53163170#1 53163170#4 196555665"/>
    </vehicle>
    <vehicle id="28" depart="84.00">
        <route edges="-233755780#1 -166789714#2 -1365571318#1 1365571319#0 1365571319#1 1365571319#2 1365571319#3 1365571319#4 478837359#0 478837358#1 -468684740#1 1409830429#0 1409830427#2 1409830427#3 1409830427#5 254729343#0 254729343#1 254729344 254729345#0 198464189#1 198464189#2 1271375157#0 -420831925#4 -420831925#2 -467443785#5 -467443785#3 -467443785#1 -467443785#0 -141106321#3 -141106321#2 -141106321#1 -468684738#2 -32547888#4 -32547888#2 -203177437#3 -467412728#3 -32547688#3 -467412727#1 1323929195 1335209964#2 298687479#0 298687479#1 298687479#4 298687479#5 298687479#7 298687479#8 298687479#9 32097438#0 32097438#1 4869072#2 4869072#3 4869072#4 4869072#5 4869072#6 4869072#7 4869072#8 1272969045#0 1272969045#1 32096409#1"/>
    </vehicle>
    <vehicle id="29" depart="87.00">
        <route edges="-207476998#0 1187020675#0 1187020675#1 1187020675#2 1187020675#3 -4869054#4 -4869054#2 544982887#1 1273326111#0 461737264#0 31973479#1 1273326110#0 -1026477149#1 -1026477149#0 591008990#0 11902159#3 11902157 1097827504 19166273#0 19166273#2 461162434 1227232569 4822250#0 4822250#1 1269275833#0 1269275833#1 1269275833#2 217767888#1 797145696#0 196471995#1 196471995#2 217767864#0 217767864#1 217767864#2 217767864#3 217767864#4 1239025157 468645547#1 4869093 4869097#0 4822234#4 -4869099#1 4717030#7 -4869086#24 -4869086#23 -4869086#20 -4869086#19 4818643#15 4869102#1 4869102#2 -4869102#2"/>
    </vehicle>
    <vehicle id="30" depart="90.00">
        <route edges="804796737#3 804796737#4 804796737#5 804796737#6 804796737#10 804796738#1 804796738#4 477840289#1 4841698#0 4841698#2 4841698#3 4841698#4 4841698#5 4841698#6 4841698#8 4841698#9 170013600#2 170013599#0 170013599#1 17619603#1 17619603#2 17619603#3 17619603#4 17619603#5 233756657#7 233756658#0 457363881 233756425 233756424#2 233756424#3 233756424#4 464921078#1 470897467#0 470897467#4 470897460#0 204201281#1 470897464#1 222033562#2 471326820#0 470022853#1 32517306#0 32517496 345479270 971004803 345479272#1 32551261#0 127734690#1 255760889#0 255760889#2 255760889#3 166789695#0 166789695#1 166789695#2 166789695#3 467454087#1 467454087#2 141116803#1 141116803#5 940306671#1 198107935#2 196588540#1 196588540#3 -203177437#3 -467412728#3 -32547688#3 -467412727#1 1323929195 1335209964#2 298687479#0 298687479#1 298687479#4 298687479#5 298687479#7 298687479#8 298687479#9 298687479#10 298687479#11 469446695#0 469446695#1 461162456#0 461162456#1 461162456#2 461162456#3 461162456#5 461162456#10 558320177#0 141106322#2 141106322#4 141106322#5 141106322#7 141106322#10 141106322#11 141106322#14 -202223193#7 -202223193#5 -202223193#4 -202223193#1 202223193#1"/>
    </vehicle>
    <vehicle id="31" depart="93.00">
        <route edges="163303444#3 478822511#1 478822511#3 173158424#1 173158424#2 -130359884#2 -130359884#0 -464727675#3 -464727675#2 -464727676#3 -255627354#6 -255627354#3 -464727673 -132936844#9 -132936844#5 -132936844#2 -459593649#1 46695236#0 166789709#2 166789709#3 248402400#1 248402400#2 1349096472#1 1338766475 970997094 -1323282838 -12100751 -1323282836 -181921961 -459167664#1 4609139#0 4609139#1 4609139#2 4609139#3 4609139#4 204157473#2 -848656103#22 -848656103#21 -848656103#20 -848656103#19 -848656103#18 -848656103#17 -848656103#14 -848656103#11 -848656103#10 -848656103#7 -848656103#6 -848656103#3 -848656103#2 -848656103#1 -848656103#0 -4790313#0 848656099 848656100 182057549#0 182057549#1 182057549#3 166373715#0 166373715#1 1452392416 235339887#0 510940439#1 510940439#2 473051279 235339890 461150494#1 1452392417 1452392418 44117624#0 44117624#1 544974145#0 544974145#1 544974139#1 196615703#0 196615703#4 1427294340#1 252785553#0 252785553#3 252785553#5 252785553#8 252785553#10"/>
    </vehicle>
    <vehicle id="32" depart="96.00">
        <route edges="4818627#7 4818627#8 4818627#9 -4818623#5 -4818623#4 4818625#4 4818625#5 4818625#6 4818625#7 4818625#10 4818625#11 4818625#14 4818625#15 -30312452#4 -30312452#3 -30312452#2 -30312452#1 4818640#1 544981503#4 4818627#17 4818627#18 4818627#19 172402438#0 172402438#1 1330094244#1 -182944828#4 8036296#1 469376948#1 -298687478#0 -55364903 -4637525 32547688#1 467412728#1 203177437#1 19165392#1 19165392#2 19165392#5 19165392#6 198248650#1 198248650#2 254287943#1 254287943#2 254287943#4 198107936#0 198107936#1 467465586#1"/>
    </vehicle>
    <vehicle id="33" depart="99.00">
        <route edges="-453656863#7 -196602568#4 -196602568#2 -196602568#0 470116584#0 470116584#1 470897456#1 470897462#1 470897454#0 196602585#1 196602585#4 470897465#1 470897465#2 470897448 470897466#0 470897466#2 470897466#3 470897466#5 470897466#6 470897450#0 470897450#2 470897450#3 470897463#0 470897463#1 470897463#2 470897449 470897468#0 470897468#1 470897451 464921079#0 464921078#1 470897467#0 470897467#4 470897460#0 204201281#1 470897464#1 222033562#2 471326820#0 470022853#1 32517306#0 32517496 345479270 971004803 345479272#1 32551261#0 127734690#1 255760889#0 255760889#2 255760889#3 166789695#0 166789695#1 166789695#2 166789695#3 467454087#1 467454087#2 141116802#1 141116802#2 198464186#5 1271398200#0 203177444#2 203177444#3 203177444#4 196471985#1 196471985#3 196471985#4 196471985#5 204201291#1 196565641 4397264#0 4397264#3 4397264#4 32000911 461139248 -467166543 -467166544 -234840801 961460491 234840802#1 234840802#3 4681366#1 4681366#2 4681366#3 4681366#4 4681366#7 4681366#8 -133070225#11 -133070225#10 -133070225#9"/>
    </vehicle>
    <vehicle id="34" depart="102.00">
        <route edges="-4818657#5 -172397937#1 -202227581#1 -4818654#6 -4818654#5 -4818654#2 -4818654#1 -202227578#3 -202227578#2 -202227578#0 -466398414#1 -4596264#2 -4596264#1 -4596264#0 182057549#0 182057549#1 182057549#3 166373715#0 166373715#1 1452392416 235339887#0 510940439#1 510940439#2 473051279 235339890 461150494#1 1452392417 1452392418 44117624#0 44117624#1 544974145#0 544974145#1 544974139#1 196615703#0 196615703#4 1427294340#1 252785553#0 252785553#3 252785553#5 252785553#8 252785553#10 252785553#13 252785553#15 1347852063#1 1347852063#4 1347852063#8 1347852063#10 1339387330#2 1339387330#4 1339387330#5 1339387330#9 1339387330#10 1339387330#11 1339758574#1 202223186#2 202223186#3 202223186#6 202223186#7 202223186#8 1338997387#0 -4814371#6 -4814371#5"/>
    </vehicle>
    <vehicle id="35" depart="105.00">
        <route edges="-32094343#0 -202227569#0 -202227578#3 -202227578#2 -202227578#0 1337845319#1 1337845319#2 149839458#0 149839458#1 202227572 172198867#0 467166544 467166543 -461139248 -19164932 4676205#0 198464170#0 198464170#1 198464170#2 140445188#1 140445188#3 467197875 -32000798#4 -32000798#2 -555858216#1 -1269868035#3 -1269868035#1 -1269868035#0 -166789705#7 -166789705#6 -166789705#5 -166789705#3 -166789705#2 135678694#1 135678693#0 -502712725#1 -166790917#2 -1409278401#1 -166789696#3 1273252488#1 1273252487#0 1273252487#1 166789702#1 166789702#3 166789702#7 166789702#8 141116818#2 141116818#4 141116818#6 1272983206#1 1272983206#2 141116806#1 141116806#4 1272983205#1 1272983203#4 511579309#1"/>
    </vehicle>
    <vehicle id="36" depart="108.00">
        <route edges="4822265#4 -766734719#2 -766734719#1 -217767876#4 -4822248#17 -4822248#16 -4822248#15 -4822248#12 -4822248#9 -4822248#6 -182944827#2 -1269275832#4 -1269275832#2 -1269275832#1 1382260856#1 1382260856#2 1382260856#3 51311504#0 51311504#1 1039236383#0 1039236383#1 330438494#0 330438494#1 957714782#0 559260148 298687482#1 298687482#2 298687482#3 298687482#4 298687482#5 298687482#6 298687482#7 298687482#8 298687482#9 298687482#10 298687482#11 473030857#0 961460493 234840801 467166544 467166543 254732794#1 -467125367#2 -172407531#11 -172407531#7 -172407531#6 -172407531#5 -172407531#2 -172407531#1 -172407531#0 -12102996#3 -12102996#2 -12102996#1 -12102996#0 -4820565#8"/>
    </vehicle>
    <vehicle id="37" depart="111.00">