<?xml version="1.0" encoding="UTF-8"?>
<routes>
    <!-- Minimal test demand: a handful of vehicles using known Calgary edges -->
    <!-- Edge IDs sourced from output/calgary.trips.xml (generated by randomTrips.py) -->
    <!-- For full-scale simulation, use duarouter on the trips file (needs ≥16GB RAM) -->
    <vType id="car" vClass="passenger" maxSpeed="33.33" accel="2.6" decel="4.5" sigma="0.5" length="5" minGap="2.5"/>

    <trip id="v0" depart="0"  veh="v0" type="car" from="217341386"    to="-11899743#2"  departLane="free" departSpeed="random"/>
    <trip id="v1" depart="10" veh="v1" type="car" from="-4717003#8"  to="-32159583"    departLane="free" departSpeed="random"/>
    <trip id="v2" depart="20" veh="v2" type="car" from="32153544#0"  to="252498892"    departLane="free" departSpeed="random"/>
    <trip id="v3" depart="30" veh="v3" type="car" from="-4717003#8"  to="252498892"    departLane="free" departSpeed="random"/>
    <trip id="v4" depart="40" veh="v4" type="car" from="217341386"   to="-32159583"    departLane="free" departSpeed="random"/>
</routes>
