<?xml version="1.0" encoding="UTF-8"?>
<routes>
  <vType id="car" vClass="passenger" maxSpeed="33.33" accel="2.6" decel="4.5" sigma="0.5" length="5" minGap="2.5" color="0.2,0.5,0.8"/>
  <vType id="truck" vClass="truck" maxSpeed="25" accel="1.5" decel="4.0" sigma="0.5" length="10" minGap="3" color="0.8,0.3,0.2" probability="0.08"/>

  <flow id="aadt_0" type="car" from="558320182#7" to="1463656925#2" begin="0" end="3600" probability="0.416667" departLane="free" departSpeed="random"/>
  <flow id="aadt_1" type="car" from="558320182#7" to="248402400#1" begin="0" end="3600" probability="0.416667" departLane="free" departSpeed="random"/>
  <flow id="aadt_2" type="car" from="558320182#7" to="32105663#9" begin="0" end="3600" probability="0.416667" departLane="free" departSpeed="random"/>
  <flow id="aadt_3" type="car" from="198107934" to="32517496" begin="0" end="3600" probability="0.383333" departLane="free" departSpeed="random"/>
  <flow id="aadt_4" type="car" from="198107934" to="166789707#4" begin="0" end="3600" probability="0.383333" departLane="free" departSpeed="random"/>
  <flow id="aadt_5" type="car" from="198107934" to="1185630532#4" begin="0" end="3600" probability="0.383333" departLane="free" departSpeed="random"/>
  <flow id="aadt_6" type="car" from="1427294341#7" to="-459593649#1" begin="0" end="3600" probability="0.375000" departLane="free" departSpeed="random"/>
  <flow id="aadt_7" type="car" from="1427294341#7" to="166187515#2" begin="0" end="3600" probability="0.375000" departLane="free" departSpeed="random"/>
  <flow id="aadt_8" type="car" from="1427294341#7" to="32517496" begin="0" end="3600" probability="0.375000" departLane="free" departSpeed="random"/>
  <flow id="aadt_9" type="car" from="1427294341#0" to="357501306#1" begin="0" end="3600" probability="0.366667" departLane="free" departSpeed="random"/>
  <flow id="aadt_10" type="car" from="1427294341#0" to="24836134#2" begin="0" end="3600" probability="0.366667" departLane="free" departSpeed="random"/>
  <flow id="aadt_11" type="car" from="1427294341#0" to="32517496" begin="0" end="3600" probability="0.366667" departLane="free" departSpeed="random"/>
  <flow id="aadt_12" type="car" from="32105663#9" to="600592567#8" begin="0" end="3600" probability="0.358333" departLane="free" departSpeed="random"/>
  <flow id="aadt_13" type="car" from="32105663#9" to="32097429" begin="0" end="3600" probability="0.358333" departLane="free" departSpeed="random"/>
  <flow id="aadt_14" type="car" from="32105663#9" to="458205292#3" begin="0" end="3600" probability="0.358333" departLane="free" departSpeed="random"/>
  <flow id="aadt_15" type="car" from="46788423#4" to="196550929#0" begin="0" end="3600" probability="0.358333" departLane="free" departSpeed="random"/>
  <flow id="aadt_16" type="car" from="46788423#4" to="32105663#9" begin="0" end="3600" probability="0.358333" departLane="free" departSpeed="random"/>
  <flow id="aadt_17" type="car" from="46788423#4" to="1427294341#0" begin="0" end="3600" probability="0.358333" departLane="free" departSpeed="random"/>
  <flow id="aadt_18" type="car" from="558320180#17" to="32097429" begin="0" end="3600" probability="0.350000" departLane="free" departSpeed="random"/>
  <flow id="aadt_19" type="car" from="558320180#17" to="1423613729#3" begin="0" end="3600" probability="0.350000" departLane="free" departSpeed="random"/>
  <flow id="aadt_20" type="car" from="558320180#17" to="52510292#1" begin="0" end="3600" probability="0.350000" departLane="free" departSpeed="random"/>
  <flow id="aadt_21" type="car" from="558320180#10" to="1409499802#2" begin="0" end="3600" probability="0.350000" departLane="free" departSpeed="random"/>
  <flow id="aadt_22" type="car" from="558320180#10" to="12100756#2" begin="0" end="3600" probability="0.350000" departLane="free" departSpeed="random"/>
  <flow id="aadt_23" type="car" from="558320180#10" to="1427294341#0" begin="0" end="3600" probability="0.350000" departLane="free" departSpeed="random"/>
  <flow id="aadt_24" type="car" from="198464181#1" to="511579311#10" begin="0" end="3600" probability="0.333333" departLane="free" departSpeed="random"/>
  <flow id="aadt_25" type="car" from="198464181#1" to="198464186#5" begin="0" end="3600" probability="0.333333" departLane="free" departSpeed="random"/>
  <flow id="aadt_26" type="car" from="198464181#1" to="491849870#2" begin="0" end="3600" probability="0.333333" departLane="free" departSpeed="random"/>
  <flow id="aadt_27" type="car" from="558320190#0" to="4609140#5" begin="0" end="3600" probability="0.333333" departLane="free" departSpeed="random"/>
  <flow id="aadt_28" type="car" from="558320190#0" to="1272736250#1" begin="0" end="3600" probability="0.333333" departLane="free" departSpeed="random"/>
  <flow id="aadt_29" type="car" from="558320190#0" to="600592567#8" begin="0" end="3600" probability="0.333333" departLane="free" departSpeed="random"/>
  <flow id="aadt_30" type="car" from="222970223#0" to="1271380733#0" begin="0" end="3600" probability="0.316667" departLane="free" departSpeed="random"/>
  <flow id="aadt_31" type="car" from="222970223#0" to="-459593649#1" begin="0" end="3600" probability="0.316667" departLane="free" departSpeed="random"/>
  <flow id="aadt_32" type="car" from="222970223#0" to="166789715#8" begin="0" end="3600" probability="0.316667" departLane="free" departSpeed="random"/>
  <flow id="aadt_33" type="car" from="1349096472#1" to="458205292#3" begin="0" end="3600" probability="0.300000" departLane="free" departSpeed="random"/>
  <flow id="aadt_34" type="car" from="1349096472#1" to="166789707#4" begin="0" end="3600" probability="0.300000" departLane="free" departSpeed="random"/>
  <flow id="aadt_35" type="car" from="1349096472#1" to="1270794194#1" begin="0" end="3600" probability="0.300000" departLane="free" departSpeed="random"/>
  <flow id="aadt_36" type="car" from="32097429" to="-1268332928#5" begin="0" end="3600" probability="0.300000" departLane="free" departSpeed="random"/>
  <flow id="aadt_37" type="car" from="32097429" to="558320182#7" begin="0" end="3600" probability="0.300000" departLane="free" departSpeed="random"/>
  <flow id="aadt_38" type="car" from="32097429" to="166789705#7" begin="0" end="3600" probability="0.300000" departLane="free" departSpeed="random"/>
  <flow id="aadt_39" type="car" from="1325528763#1" to="1270794194#1" begin="0" end="3600" probability="0.291667" departLane="free" departSpeed="random"/>
  <flow id="aadt_40" type="car" from="1325528763#1" to="209086947#3" begin="0" end="3600" probability="0.291667" departLane="free" departSpeed="random"/>
  <flow id="aadt_41" type="car" from="1325528763#1" to="1272736250#1" begin="0" end="3600" probability="0.291667" departLane="free" departSpeed="random"/>
  <flow id="aadt_42" type="car" from="357501306#1" to="196550929#0" begin="0" end="3600" probability="0.275000" departLane="free" departSpeed="random"/>
  <flow id="aadt_43" type="car" from="357501306#1" to="19165392#5" begin="0" end="3600" probability="0.275000" departLane="free" departSpeed="random"/>
  <flow id="aadt_44" type="car" from="357501306#1" to="166789707#4" begin="0" end="3600" probability="0.275000" departLane="free" departSpeed="random"/>
  <flow id="aadt_45" type="car" from="248402400#1" to="19165946" begin="0" end="3600" probability="0.258333" departLane="free" departSpeed="random"/>
  <flow id="aadt_46" type="car" from="248402400#1" to="1423613729#3" begin="0" end="3600" probability="0.258333" departLane="free" departSpeed="random"/>
  <flow id="aadt_47" type="car" from="248402400#1" to="166789705#7" begin="0" end="3600" probability="0.258333" departLane="free" departSpeed="random"/>
  <flow id="aadt_48" type="car" from="209086947#8" to="19165392#5" begin="0" end="3600" probability="0.258333" departLane="free" departSpeed="random"/>
  <flow id="aadt_49" type="car" from="209086947#8" to="1325528763#1" begin="0" end="3600" probability="0.258333" departLane="free" departSpeed="random"/>
  <flow id="aadt_50" type="car" from="209086947#8" to="1349096472#1" begin="0" end="3600" probability="0.258333" departLane="free" departSpeed="random"/>
  <flow id="aadt_51" type="car" from="254287943#2" to="1463656916#8" begin="0" end="3600" probability="0.250000" departLane="free" departSpeed="random"/>
  <flow id="aadt_52" type="car" from="254287943#2" to="32097429" begin="0" end="3600" probability="0.250000" departLane="free" departSpeed="random"/>
  <flow id="aadt_53" type="car" from="254287943#2" to="141106316#2" begin="0" end="3600" probability="0.250000" departLane="free" departSpeed="random"/>
  <flow id="aadt_54" type="car" from="166187515#2" to="467193014#2" begin="0" end="3600" probability="0.250000" departLane="free" departSpeed="random"/>
  <flow id="aadt_55" type="car" from="166187515#2" to="940306671#1" begin="0" end="3600" probability="0.250000" departLane="free" departSpeed="random"/>
  <flow id="aadt_56" type="car" from="166187515#2" to="12100756#2" begin="0" end="3600" probability="0.250000" departLane="free" departSpeed="random"/>
  <flow id="aadt_57" type="car" from="292896517" to="468730823#1" begin="0" end="3600" probability="0.250000" departLane="free" departSpeed="random"/>
  <flow id="aadt_58" type="car" from="292896517" to="1270794194#1" begin="0" end="3600" probability="0.250000" departLane="free" departSpeed="random"/>
  <flow id="aadt_59" type="car" from="292896517" to="46788423#4" begin="0" end="3600" probability="0.250000" departLane="free" departSpeed="random"/>
  <flow id="aadt_60" type="car" from="19165946" to="166789695#2" begin="0" end="3600" probability="0.241667" departLane="free" departSpeed="random"/>
  <flow id="aadt_61" type="car" from="19165946" to="166790915#11" begin="0" end="3600" probability="0.241667" departLane="free" departSpeed="random"/>
  <flow id="aadt_62" type="car" from="19165946" to="166790915#1" begin="0" end="3600" probability="0.241667" departLane="free" departSpeed="random"/>
  <flow id="aadt_63" type="car" from="209086947#3" to="248402400#1" begin="0" end="3600" probability="0.241667" departLane="free" departSpeed="random"/>
  <flow id="aadt_64" type="car" from="209086947#3" to="1463656916#8" begin="0" end="3600" probability="0.241667" departLane="free" departSpeed="random"/>
  <flow id="aadt_65" type="car" from="209086947#3" to="222970223#0" begin="0" end="3600" probability="0.241667" departLane="free" departSpeed="random"/>
  <flow id="aadt_66" type="car" from="203404552#1" to="166789694#0" begin="0" end="3600" probability="0.241667" departLane="free" departSpeed="random"/>
  <flow id="aadt_67" type="car" from="203404552#1" to="32000793#1" begin="0" end="3600" probability="0.241667" departLane="free" departSpeed="random"/>
  <flow id="aadt_68" type="car" from="203404552#1" to="1423613723#0" begin="0" end="3600" probability="0.241667" departLane="free" departSpeed="random"/>
  <flow id="aadt_69" type="car" from="200879002#4" to="511579309#1" begin="0" end="3600" probability="0.216667" departLane="free" departSpeed="random"/>
  <flow id="aadt_70" type="car" from="200879002#4" to="131157671#1" begin="0" end="3600" probability="0.216667" departLane="free" departSpeed="random"/>
  <flow id="aadt_71" type="car" from="200879002#4" to="196471986#0" begin="0" end="3600" probability="0.216667" departLane="free" departSpeed="random"/>
  <flow id="aadt_72" type="car" from="166789709#3" to="204156098#5" begin="0" end="3600" probability="0.208333" departLane="free" departSpeed="random"/>
  <flow id="aadt_73" type="car" from="166789709#3" to="130359884#1" begin="0" end="3600" probability="0.208333" departLane="free" departSpeed="random"/>
  <flow id="aadt_74" type="car" from="166789709#3" to="198248662#10" begin="0" end="3600" probability="0.208333" departLane="free" departSpeed="random"/>
  <flow id="aadt_75" type="car" from="198248662#10" to="166789708#1" begin="0" end="3600" probability="0.208333" departLane="free" departSpeed="random"/>
  <flow id="aadt_76" type="car" from="198248662#10" to="198464181#1" begin="0" end="3600" probability="0.208333" departLane="free" departSpeed="random"/>
  <flow id="aadt_77" type="car" from="198248662#10" to="46788423#4" begin="0" end="3600" probability="0.208333" departLane="free" departSpeed="random"/>
  <flow id="aadt_78" type="car" from="198464186#5" to="1272983205#1" begin="0" end="3600" probability="0.208333" departLane="free" departSpeed="random"/>
  <flow id="aadt_79" type="car" from="198464186#5" to="52510292#1" begin="0" end="3600" probability="0.208333" departLane="free" departSpeed="random"/>
  <flow id="aadt_80" type="car" from="198464186#5" to="179489270#1" begin="0" end="3600" probability="0.208333" departLane="free" departSpeed="random"/>
  <flow id="aadt_81" type="car" from="1271398199#1" to="32000793#1" begin="0" end="3600" probability="0.208333" departLane="free" departSpeed="random"/>
  <flow id="aadt_82" type="car" from="1271398199#1" to="222970223#0" begin="0" end="3600" probability="0.208333" departLane="free" departSpeed="random"/>
  <flow id="aadt_83" type="car" from="1271398199#1" to="141116802#2" begin="0" end="3600" probability="0.208333" departLane="free" departSpeed="random"/>
  <flow id="aadt_84" type="car" from="1423613729#3" to="52510292#1" begin="0" end="3600" probability="0.208333" departLane="free" departSpeed="random"/>
  <flow id="aadt_85" type="car" from="1423613729#3" to="196471986#0" begin="0" end="3600" probability="0.208333" departLane="free" departSpeed="random"/>
  <flow id="aadt_86" type="car" from="1423613729#3" to="32097429" begin="0" end="3600" probability="0.208333" departLane="free" departSpeed="random"/>
  <flow id="aadt_87" type="car" from="-459593649#1" to="1463656916#8" begin="0" end="3600" probability="0.200000" departLane="free" departSpeed="random"/>
  <flow id="aadt_88" type="car" from="-459593649#1" to="166789707#4" begin="0" end="3600" probability="0.200000" departLane="free" departSpeed="random"/>
  <flow id="aadt_89" type="car" from="-459593649#1" to="166790915#11" begin="0" end="3600" probability="0.200000" departLane="free" departSpeed="random"/>
  <flow id="aadt_90" type="car" from="52510292#1" to="1463656925#2" begin="0" end="3600" probability="0.200000" departLane="free" departSpeed="random"/>
  <flow id="aadt_91" type="car" from="52510292#1" to="1423613723#0" begin="0" end="3600" probability="0.200000" departLane="free" departSpeed="random"/>
  <flow id="aadt_92" type="car" from="52510292#1" to="204156098#5" begin="0" end="3600" probability="0.200000" departLane="free" departSpeed="random"/>
  <flow id="aadt_93" type="car" from="222970219#5" to="19165946" begin="0" end="3600" probability="0.200000" departLane="free" departSpeed="random"/>
  <flow id="aadt_94" type="car" from="222970219#5" to="198464189#2" begin="0" end="3600" probability="0.200000" departLane="free" departSpeed="random"/>
  <flow id="aadt_95" type="car" from="222970219#5" to="141106316#2" begin="0" end="3600" probability="0.200000" departLane="free" departSpeed="random"/>
  <flow id="aadt_96" type="car" from="1185630532#4" to="198464186#5" begin="0" end="3600" probability="0.200000" departLane="free" departSpeed="random"/>
  <flow id="aadt_97" type="car" from="1185630532#4" to="233756423#9" begin="0" end="3600" probability="0.200000" departLane="free" departSpeed="random"/>
  <flow id="aadt_98" type="car" from="1185630532#4" to="198248661#1" begin="0" end="3600" probability="0.200000" departLane="free" departSpeed="random"/>
  <flow id="aadt_99" type="car" from="135678688#1" to="1272736250#1" begin="0" end="3600" probability="0.191667" departLane="free" departSpeed="random"/>
  <flow id="aadt_100" type="car" from="135678688#1" to="140445175#2" begin="0" end="3600" probability="0.191667" departLane="free" departSpeed="random"/>
  <flow id="aadt_101" type="car" from="135678688#1" to="166789702#3" begin="0" end="3600" probability="0.191667" departLane="free" departSpeed="random"/>
  <flow id="aadt_102" type="car" from="468730823#1" to="558320190#0" begin="0" end="3600" probability="0.191667" departLane="free" departSpeed="random"/>
  <flow id="aadt_103" type="car" from="468730823#1" to="12100756#2" begin="0" end="3600" probability="0.191667" departLane="free" departSpeed="random"/>
  <flow id="aadt_104" type="car" from="468730823#1" to="1463656925#2" begin="0" end="3600" probability="0.191667" departLane="free" departSpeed="random"/>
  <flow id="aadt_105" type="car" from="198248661#1" to="209086947#3" begin="0" end="3600" probability="0.175000" departLane="free" departSpeed="random"/>
  <flow id="aadt_106" type="car" from="198248661#1" to="166790915#1" begin="0" end="3600" probability="0.175000" departLane="free" departSpeed="random"/>
  <flow id="aadt_107" type="car" from="198248661#1" to="166789695#2" begin="0" end="3600" probability="0.175000" departLane="free" departSpeed="random"/>
  <flow id="aadt_108" type="car" from="166789707#4" to="222970219#5" begin="0" end="3600" probability="0.175000" departLane="free" departSpeed="random"/>
  <flow id="aadt_109" type="car" from="166789707#4" to="19165946" begin="0" end="3600" probability="0.175000" departLane="free" departSpeed="random"/>
  <flow id="aadt_110" type="car" from="166789707#4" to="32547688#1" begin="0" end="3600" probability="0.175000" departLane="free" departSpeed="random"/>
  <flow id="aadt_111" type="car" from="166789703#0" to="1463656916#8" begin="0" end="3600" probability="0.166667" departLane="free" departSpeed="random"/>
  <flow id="aadt_112" type="car" from="166789703#0" to="468730823#1" begin="0" end="3600" probability="0.166667" departLane="free" departSpeed="random"/>
  <flow id="aadt_113" type="car" from="166789703#0" to="1463656925#2" begin="0" end="3600" probability="0.166667" departLane="free" departSpeed="random"/>
  <flow id="aadt_114" type="car" from="32000793#1" to="-203184933#2" begin="0" end="3600" probability="0.166667" departLane="free" departSpeed="random"/>
  <flow id="aadt_115" type="car" from="32000793#1" to="511579311#10" begin="0" end="3600" probability="0.166667" departLane="free" departSpeed="random"/>
  <flow id="aadt_116" type="car" from="32000793#1" to="1423613729#3" begin="0" end="3600" probability="0.166667" departLane="free" departSpeed="random"/>
  <flow id="aadt_117" type="car" from="196588540#3" to="140445175#2" begin="0" end="3600" probability="0.166667" departLane="free" departSpeed="random"/>
  <flow id="aadt_118" type="car" from="196588540#3" to="32548081#1" begin="0" end="3600" probability="0.166667" departLane="free" departSpeed="random"/>
  <flow id="aadt_119" type="car" from="196588540#3" to="204072399#1" begin="0" end="3600" probability="0.166667" departLane="free" departSpeed="random"/>
  <flow id="aadt_120" type="car" from="209086946#1" to="179489270#1" begin="0" end="3600" probability="0.166667" departLane="free" departSpeed="random"/>
  <flow id="aadt_121" type="car" from="209086946#1" to="166789696#2" begin="0" end="3600" probability="0.166667" departLane="free" departSpeed="random"/>
  <flow id="aadt_122" type="car" from="209086946#1" to="558320180#10" begin="0" end="3600" probability="0.166667" departLane="free" departSpeed="random"/>
  <flow id="aadt_123" type="car" from="807915578#1" to="-459593649#1" begin="0" end="3600" probability="0.166667" departLane="free" departSpeed="random"/>
  <flow id="aadt_124" type="car" from="807915578#1" to="471326820#0" begin="0" end="3600" probability="0.166667" departLane="free" departSpeed="random"/>
  <flow id="aadt_125" type="car" from="807915578#1" to="32105663#9" begin="0" end="3600" probability="0.166667" departLane="free" departSpeed="random"/>
  <flow id="aadt_126" type="car" from="32548081#1" to="1270794194#1" begin="0" end="3600" probability="0.158333" departLane="free" departSpeed="random"/>
  <flow id="aadt_127" type="car" from="32548081#1" to="209086946#1" begin="0" end="3600" probability="0.158333" departLane="free" departSpeed="random"/>
  <flow id="aadt_128" type="car" from="32548081#1" to="141116803#5" begin="0" end="3600" probability="0.158333" departLane="free" departSpeed="random"/>
  <flow id="aadt_129" type="car" from="196565641" to="468730823#1" begin="0" end="3600" probability="0.158333" departLane="free" departSpeed="random"/>
  <flow id="aadt_130" type="car" from="196565641" to="198464181#1" begin="0" end="3600" probability="0.158333" departLane="free" departSpeed="random"/>
  <flow id="aadt_131" type="car" from="196565641" to="1271398199#1" begin="0" end="3600" probability="0.158333" departLane="free" departSpeed="random"/>
  <flow id="aadt_132" type="car" from="19165392#5" to="233756424#3" begin="0" end="3600" probability="0.158333" departLane="free" departSpeed="random"/>
  <flow id="aadt_133" type="car" from="19165392#5" to="491849870#2" begin="0" end="3600" probability="0.158333" departLane="free" departSpeed="random"/>
  <flow id="aadt_134" type="car" from="19165392#5" to="209086946#1" begin="0" end="3600" probability="0.158333" departLane="free" departSpeed="random"/>
  <flow id="aadt_135" type="car" from="940306671#1" to="1271398199#1" begin="0" end="3600" probability="0.158333" departLane="free" departSpeed="random"/>
  <flow id="aadt_136" type="car" from="940306671#1" to="4609140#5" begin="0" end="3600" probability="0.158333" departLane="free" departSpeed="random"/>
  <flow id="aadt_137" type="car" from="940306671#1" to="203406169#2" begin="0" end="3600" probability="0.158333" departLane="free" departSpeed="random"/>
  <flow id="aadt_138" type="car" from="141106316#2" to="141116803#1" begin="0" end="3600" probability="0.158333" departLane="free" departSpeed="random"/>
  <flow id="aadt_139" type="car" from="141106316#2" to="166789702#3" begin="0" end="3600" probability="0.158333" departLane="free" departSpeed="random"/>
  <flow id="aadt_140" type="car" from="141106316#2" to="166790915#11" begin="0" end="3600" probability="0.158333" departLane="free" departSpeed="random"/>
  <flow id="aadt_141" type="car" from="204156098#5" to="166187515#2" begin="0" end="3600" probability="0.158333" departLane="free" departSpeed="random"/>
  <flow id="aadt_142" type="car" from="204156098#5" to="135678688#1" begin="0" end="3600" probability="0.158333" departLane="free" departSpeed="random"/>
  <flow id="aadt_143" type="car" from="204156098#5" to="254287943#2" begin="0" end="3600" probability="0.158333" departLane="free" departSpeed="random"/>
  <flow id="aadt_144" type="car" from="198464189#2" to="222970219#5" begin="0" end="3600" probability="0.158333" departLane="free" departSpeed="random"/>
  <flow id="aadt_145" type="car" from="198464189#2" to="203404550#2" begin="0" end="3600" probability="0.158333" departLane="free" departSpeed="random"/>
  <flow id="aadt_146" type="car" from="198464189#2" to="511579311#10" begin="0" end="3600" probability="0.158333" departLane="free" departSpeed="random"/>
  <flow id="aadt_147" type="car" from="1463656916#8" to="166790915#1" begin="0" end="3600" probability="0.158333" departLane="free" departSpeed="random"/>
  <flow id="aadt_148" type="car" from="1463656916#8" to="135678688#1" begin="0" end="3600" probability="0.158333" departLane="free" departSpeed="random"/>
  <flow id="aadt_149" type="car" from="1463656916#8" to="203404550#2" begin="0" end="3600" probability="0.158333" departLane="free" departSpeed="random"/>
  <flow id="aadt_150" type="car" from="203177444#4" to="204072396#2" begin="0" end="3600" probability="0.150000" departLane="free" departSpeed="random"/>
  <flow id="aadt_151" type="car" from="203177444#4" to="196550929#0" begin="0" end="3600" probability="0.150000" departLane="free" departSpeed="random"/>
  <flow id="aadt_152" type="car" from="203177444#4" to="141116803#5" begin="0" end="3600" probability="0.150000" departLane="free" departSpeed="random"/>
  <flow id="aadt_153" type="car" from="141116803#1" to="141106316#2" begin="0" end="3600" probability="0.150000" departLane="free" departSpeed="random"/>
  <flow id="aadt_154" type="car" from="141116803#1" to="1423613729#3" begin="0" end="3600" probability="0.150000" departLane="free" departSpeed="random"/>
  <flow id="aadt_155" type="car" from="141116803#1" to="254287943#2" begin="0" end="3600" probability="0.150000" departLane="free" departSpeed="random"/>
  <flow id="aadt_156" type="car" from="141116803#5" to="807915577#7" begin="0" end="3600" probability="0.150000" departLane="free" departSpeed="random"/>
  <flow id="aadt_157" type="car" from="141116803#5" to="203406169#2" begin="0" end="3600" probability="0.150000" departLane="free" departSpeed="random"/>
  <flow id="aadt_158" type="car" from="141116803#5" to="1349096472#1" begin="0" end="3600" probability="0.150000" departLane="free" departSpeed="random"/>
  <flow id="aadt_159" type="car" from="141116807#1" to="140445177#3" begin="0" end="3600" probability="0.150000" departLane="free" departSpeed="random"/>
  <flow id="aadt_160" type="car" from="141116807#1" to="558320180#17" begin="0" end="3600" probability="0.150000" departLane="free" departSpeed="random"/>
  <flow id="aadt_161" type="car" from="141116807#1" to="196471986#0" begin="0" end="3600" probability="0.150000" departLane="free" departSpeed="random"/>
  <flow id="aadt_162" type="car" from="1271380733#0" to="357501306#1" begin="0" end="3600" probability="0.150000" departLane="free" departSpeed="random"/>
  <flow id="aadt_163" type="car" from="1271380733#0" to="292896517" begin="0" end="3600" probability="0.150000" departLane="free" departSpeed="random"/>
  <flow id="aadt_164" type="car" from="1271380733#0" to="511579309#1" begin="0" end="3600" probability="0.150000" departLane="free" departSpeed="random"/>
  <flow id="aadt_165" type="car" from="196550929#0" to="19165946" begin="0" end="3600" probability="0.150000" departLane="free" departSpeed="random"/>
  <flow id="aadt_166" type="car" from="196550929#0" to="467197875" begin="0" end="3600" probability="0.150000" departLane="free" departSpeed="random"/>
  <flow id="aadt_167" type="car" from="196550929#0" to="140445175#2" begin="0" end="3600" probability="0.150000" departLane="free" departSpeed="random"/>
  <flow id="aadt_168" type="car" from="1463656916#0" to="1271380733#0" begin="0" end="3600" probability="0.150000" departLane="free" departSpeed="random"/>
  <flow id="aadt_169" type="car" from="1463656916#0" to="141116806#1" begin="0" end="3600" probability="0.150000" departLane="free" departSpeed="random"/>
  <flow id="aadt_170" type="car" from="1463656916#0" to="198464181#1" begin="0" end="3600" probability="0.150000" departLane="free" departSpeed="random"/>
  <flow id="aadt_171" type="car" from="198248650#2" to="1463656916#8" begin="0" end="3600" probability="0.141667" departLane="free" departSpeed="random"/>
  <flow id="aadt_172" type="car" from="198248650#2" to="198464189#2" begin="0" end="3600" probability="0.141667" departLane="free" departSpeed="random"/>
  <flow id="aadt_173" type="car" from="198248650#2" to="141116806#1" begin="0" end="3600" probability="0.141667" departLane="free" departSpeed="random"/>
  <flow id="aadt_174" type="car" from="166789715#8" to="32547688#1" begin="0" end="3600" probability="0.133333" departLane="free" departSpeed="random"/>
  <flow id="aadt_175" type="car" from="166789715#8" to="1269812659#1" begin="0" end="3600" probability="0.133333" departLane="free" departSpeed="random"/>
  <flow id="aadt_176" type="car" from="166789715#8" to="1185630532#4" begin="0" end="3600" probability="0.133333" departLane="free" departSpeed="random"/>
  <flow id="aadt_177" type="car" from="166790915#11" to="166789694#0" begin="0" end="3600" probability="0.133333" departLane="free" departSpeed="random"/>
  <flow id="aadt_178" type="car" from="166790915#11" to="196471986#0" begin="0" end="3600" probability="0.133333" departLane="free" departSpeed="random"/>
  <flow id="aadt_179" type="car" from="166790915#11" to="198107934" begin="0" end="3600" probability="0.133333" departLane="free" departSpeed="random"/>
  <flow id="aadt_180" type="car" from="32547688#1" to="140445175#2" begin="0" end="3600" probability="0.133333" departLane="free" departSpeed="random"/>
  <flow id="aadt_181" type="car" from="32547688#1" to="204201293#1" begin="0" end="3600" probability="0.133333" departLane="free" departSpeed="random"/>
  <flow id="aadt_182" type="car" from="32547688#1" to="357501306#1" begin="0" end="3600" probability="0.133333" departLane="free" departSpeed="random"/>
  <flow id="aadt_183" type="car" from="141116818#4" to="140445175#2" begin="0" end="3600" probability="0.125000" departLane="free" departSpeed="random"/>
  <flow id="aadt_184" type="car" from="141116818#4" to="166790915#1" begin="0" end="3600" probability="0.125000" departLane="free" departSpeed="random"/>
  <flow id="aadt_185" type="car" from="141116818#4" to="140445177#3" begin="0" end="3600" probability="0.125000" departLane="free" departSpeed="random"/>
  <flow id="aadt_186" type="car" from="32000911" to="468730823#1" begin="0" end="3600" probability="0.125000" departLane="free" departSpeed="random"/>
  <flow id="aadt_187" type="car" from="32000911" to="179489270#1" begin="0" end="3600" probability="0.125000" departLane="free" departSpeed="random"/>
  <flow id="aadt_188" type="car" from="32000911" to="166789702#3" begin="0" end="3600" probability="0.125000" departLane="free" departSpeed="random"/>
  <flow id="aadt_189" type="car" from="166789715#1" to="196565641" begin="0" end="3600" probability="0.125000" departLane="free" departSpeed="random"/>
  <flow id="aadt_190" type="car" from="166789715#1" to="357501306#1" begin="0" end="3600" probability="0.125000" departLane="free" departSpeed="random"/>
  <flow id="aadt_191" type="car" from="166789715#1" to="166789703#0" begin="0" end="3600" probability="0.125000" departLane="free" departSpeed="random"/>
  <flow id="aadt_192" type="car" from="203406169#2" to="196550929#0" begin="0" end="3600" probability="0.125000" departLane="free" departSpeed="random"/>